 SWATPLUS_CUENCAPIURA      SWAT+ Nov 30 2021    MODULAR Rev 2020.60.5.4                                   
                                        zmx       usle_k       sumfc       sumul      usle_p     usle_ls        esco        epco     cn3_swf       perco     latq_co   tiledrain 
 sname           hydgrp                 (mm)                    (mm)        (mm)                                                                                     0=notile;1=tile;
DSOLMap_1413    C                  2000.0000      0.0000    386.4500    795.2902      1.0000      4.9329      0.9500      0.5000      0.9500      0.5000      0.0100           0
DSOLMap_1413    C                  2000.0000      0.0000    386.4500    795.2902      1.0000      1.5403      0.9500      0.5000      0.9500      0.5000      0.0100           0
DSOLMap_1413    C                  2000.0000      0.0000    386.4500    795.2902      1.0000     12.2333      0.9500      0.5000      0.9500      0.5000      0.0100           0
DSOLMap_942     C                  2000.0000      0.0000    301.6450    628.7346      1.0000      4.8273      0.9500      0.5000      0.9500      0.5000      0.0100           0
DSOLMap_942     C                  2000.0000      0.0000    301.6450    628.7346      1.0000      1.5197      0.9500      0.5000      0.9500      0.5000      0.0100           0
DSOLMap_942     C                  2000.0000      0.0000    301.6450    628.7346      1.0000      5.7872      0.9500      0.5000      0.9500      0.5000      0.0100           0
DSOLMap_942     C                  2000.0000      0.0000    301.6450    628.7346      1.0000     14.6858      0.9500      0.5000      0.9500      0.5000      0.0100           0
DSOLMap_942     C                  2000.0000      0.0000    301.6450    628.7346      1.0000     14.9620      0.9500      0.5000      0.9500      0.5000      0.0100           0
DSOLMap_942     C                  2000.0000      0.0000    301.6450    628.7346      1.0000      5.3279      0.9500      0.5000      0.9500      0.5000      0.0100           0
DSOLMap_786     C                  2000.0000      0.0000    263.4500    637.9336      1.0000     12.1503      0.9500      0.5000      0.9500      0.5000      0.0100           0
DSOLMap_786     C                  2000.0000      0.0000    263.4500    637.9336      1.0000      6.1380      0.9500      0.5000      0.9500      0.5000      0.0100           0
DSOLMap_942     C                  2000.0000      0.0000    301.6450    628.7346      1.0000     14.5613      0.9500      0.5000      0.9500      0.5000      0.0100           0
DSOLMap_942     C                  2000.0000      0.0000    301.6450    628.7346      1.0000      5.5545      0.9500      0.5000      0.9500      0.5000      0.0100           0
DSOLMap_942     C                  2000.0000      0.0000    301.6450    628.7346      1.0000      5.2696      0.9500      0.5000      0.9500      0.5000      0.0100           0
DSOLMap_942     C                  2000.0000      0.0000    301.6450    628.7346      1.0000     12.3337      0.9500      0.5000      0.9500      0.5000      0.0100           0
DSOLMap_942     C                  2000.0000      0.0000    301.6450    628.7346      1.0000      1.4347      0.9500      0.5000      0.9500      0.5000      0.0100           0
DSOLMap_942     C                  2000.0000      0.0000    301.6450    628.7346      1.0000     13.0879      0.9500      0.5000      0.9500      0.5000      0.0100           0
DSOLMap_942     C                  2000.0000      0.0000    301.6450    628.7346      1.0000      5.4240      0.9500      0.5000      0.9500      0.5000      0.0100           0
DSOLMap_942     C                  2000.0000      0.0000    301.6450    628.7346      1.0000      1.4901      0.9500      0.5000      0.9500      0.5000      0.0100           0
DSOLMap_1413    C                  2000.0000      0.0000    386.4500    795.2902      1.0000      6.0379      0.9500      0.5000      0.9500      0.5000      0.0100           0
DSOLMap_1413    C                  2000.0000      0.0000    386.4500    795.2902      1.0000     11.9492      0.9500      0.5000      0.9500      0.5000      0.0100           0
DSOLMap_942     C                  2000.0000      0.0000    301.6450    628.7346      1.0000      5.2054      0.9500      0.5000      0.9500      0.5000      0.0100           0
DSOLMap_942     C                  2000.0000      0.0000    301.6450    628.7346      1.0000     11.9523      0.9500      0.5000      0.9500      0.5000      0.0100           0
DSOLMap_1413    C                  2000.0000      0.0000    386.4500    795.2902      1.0000      6.2577      0.9500      0.5000      0.9500      0.5000      0.0100           0
DSOLMap_1413    C                  2000.0000      0.0000    386.4500    795.2902      1.0000     12.7815      0.9500      0.5000      0.9500      0.5000      0.0100           0
DSOLMap_942     C                  2000.0000      0.0000    301.6450    628.7346      1.0000      5.3794      0.9500      0.5000      0.9500      0.5000      0.0100           0
DSOLMap_942     C                  2000.0000      0.0000    301.6450    628.7346      1.0000     12.4464      0.9500      0.5000      0.9500      0.5000      0.0100           0
DSOLMap_1413    C                  2000.0000      0.0000    386.4500    795.2902      1.0000      7.1723      0.9500      0.5000      0.9500      0.5000      0.0100           0
DSOLMap_1413    C                  2000.0000      0.0000    386.4500    795.2902      1.0000     11.7930      0.9500      0.5000      0.9500      0.5000      0.0100           0
DSOLMap_942     C                  2000.0000      0.0000    301.6450    628.7346      1.0000      5.6407      0.9500      0.5000      0.9500      0.5000      0.0100           0
DSOLMap_942     C                  2000.0000      0.0000    301.6450    628.7346      1.0000     12.4956      0.9500      0.5000      0.9500      0.5000      0.0100           0
DSOLMap_942     C                  2000.0000      0.0000    301.6450    628.7346      1.0000      6.5834      0.9500      0.5000      0.9500      0.5000      0.0100           0
DSOLMap_942     C                  2000.0000      0.0000    301.6450    628.7346      1.0000     13.8045      0.9500      0.5000      0.9500      0.5000      0.0100           0
DSOLMap_785     C                  2000.0000      0.0000    188.8390    605.6492      1.0000     12.3841      0.9500      0.5000      0.9500      0.5000      0.0100           0
DSOLMap_785     C                  2000.0000      0.0000    188.8390    605.6492      1.0000      5.5852      0.9500      0.5000      0.9500      0.5000      0.0100           0
DSOLMap_942     C                  2000.0000      0.0000    301.6450    628.7346      1.0000      6.2904      0.9500      0.5000      0.9500      0.5000      0.0100           0
DSOLMap_942     C                  2000.0000      0.0000    301.6450    628.7346      1.0000     12.6427      0.9500      0.5000      0.9500      0.5000      0.0100           0
DSOLMap_786     C                  2000.0000      0.0000    263.4500    637.9336      1.0000      5.4870      0.9500      0.5000      0.9500      0.5000      0.0100           0
DSOLMap_786     C                  2000.0000      0.0000    263.4500    637.9336      1.0000     11.2186      0.9500      0.5000      0.9500      0.5000      0.0100           0
DSOLMap_785     C                  2000.0000      0.0000    188.8390    605.6492      1.0000     12.9072      0.9500      0.5000      0.9500      0.5000      0.0100           0
DSOLMap_785     C                  2000.0000      0.0000    188.8390    605.6492      1.0000      5.9465      0.9500      0.5000      0.9500      0.5000      0.0100           0
DSOLMap_942     C                  2000.0000      0.0000    301.6450    628.7346      1.0000      6.5322      0.9500      0.5000      0.9500      0.5000      0.0100           0
DSOLMap_942     C                  2000.0000      0.0000    301.6450    628.7346      1.0000     14.3022      0.9500      0.5000      0.9500      0.5000      0.0100           0
DSOLMap_785     C                  2000.0000      0.0000    188.8390    605.6492      1.0000     15.8450      0.9500      0.5000      0.9500      0.5000      0.0100           0
DSOLMap_785     C                  2000.0000      0.0000    188.8390    605.6492      1.0000      5.4777      0.9500      0.5000      0.9500      0.5000      0.0100           0
DSOLMap_942     C                  2000.0000      0.0000    301.6450    628.7346      1.0000      6.1266      0.9500      0.5000      0.9500      0.5000      0.0100           0
DSOLMap_942     C                  2000.0000      0.0000    301.6450    628.7346      1.0000     12.9571      0.9500      0.5000      0.9500      0.5000      0.0100           0
DSOLMap_785     C                  2000.0000      0.0000    188.8390    605.6492      1.0000      5.9919      0.9500      0.5000      0.9500      0.5000      0.0100           0
DSOLMap_785     C                  2000.0000      0.0000    188.8390    605.6492      1.0000     12.1103      0.9500      0.5000      0.9500      0.5000      0.0100           0
DSOLMap_786     C                  2000.0000      0.0000    263.4500    637.9336      1.0000      5.4988      0.9500      0.5000      0.9500      0.5000      0.0100           0
DSOLMap_942     C                  2000.0000      0.0000    301.6450    628.7346      1.0000      5.8356      0.9500      0.5000      0.9500      0.5000      0.0100           0
DSOLMap_942     C                  2000.0000      0.0000    301.6450    628.7346      1.0000     13.9528      0.9500      0.5000      0.9500      0.5000      0.0100           0
DSOLMap_942     C                  2000.0000      0.0000    301.6450    628.7346      1.0000      6.1675      0.9500      0.5000      0.9500      0.5000      0.0100           0
DSOLMap_942     C                  2000.0000      0.0000    301.6450    628.7346      1.0000     13.8482      0.9500      0.5000      0.9500      0.5000      0.0100           0
DSOLMap_942     C                  2000.0000      0.0000    301.6450    628.7346      1.0000      5.8345      0.9500      0.5000      0.9500      0.5000      0.0100           0
DSOLMap_942     C                  2000.0000      0.0000    301.6450    628.7346      1.0000     13.7013      0.9500      0.5000      0.9500      0.5000      0.0100           0
DSOLMap_942     C                  2000.0000      0.0000    301.6450    628.7346      1.0000     12.5754      0.9500      0.5000      0.9500      0.5000      0.0100           0
DSOLMap_942     C                  2000.0000      0.0000    301.6450    628.7346      1.0000      6.0595      0.9500      0.5000      0.9500      0.5000      0.0100           0
DSOLMap_942     C                  2000.0000      0.0000    301.6450    628.7346      1.0000     14.8291      0.9500      0.5000      0.9500      0.5000      0.0100           0
DSOLMap_942     C                  2000.0000      0.0000    301.6450    628.7346      1.0000      5.6084      0.9500      0.5000      0.9500      0.5000      0.0100           0
DSOLMap_1413    C                  2000.0000      0.0000    386.4500    795.2902      1.0000     13.1055      0.9500      0.5000      0.9500      0.5000      0.0100           0
DSOLMap_1413    C                  2000.0000      0.0000    386.4500    795.2902      1.0000      5.6112      0.9500      0.5000      0.9500      0.5000      0.0100           0
DSOLMap_942     C                  2000.0000      0.0000    301.6450    628.7346      1.0000      5.9773      0.9500      0.5000      0.9500      0.5000      0.0100           0
DSOLMap_942     C                  2000.0000      0.0000    301.6450    628.7346      1.0000     16.1390      0.9500      0.5000      0.9500      0.5000      0.0100           0
DSOLMap_942     C                  2000.0000      0.0000    301.6450    628.7346      1.0000      5.6556      0.9500      0.5000      0.9500      0.5000      0.0100           0
DSOLMap_942     C                  2000.0000      0.0000    301.6450    628.7346      1.0000     15.3994      0.9500      0.5000      0.9500      0.5000      0.0100           0
DSOLMap_786     C                  2000.0000      0.0000    263.4500    637.9336      1.0000      5.5379      0.9500      0.5000      0.9500      0.5000      0.0100           0
DSOLMap_786     C                  2000.0000      0.0000    263.4500    637.9336      1.0000     12.5414      0.9500      0.5000      0.9500      0.5000      0.0100           0
DSOLMap_786     C                  2000.0000      0.0000    263.4500    637.9336      1.0000      1.3414      0.9500      0.5000      0.9500      0.5000      0.0100           0
DSOLMap_786     C                  2000.0000      0.0000    263.4500    637.9336      1.0000      0.6418      0.9500      0.5000      0.9500      0.5000      0.0100           0
DSOLMap_942     C                  2000.0000      0.0000    301.6450    628.7346      1.0000      5.7318      0.9500      0.5000      0.9500      0.5000      0.0100           0
DSOLMap_942     C                  2000.0000      0.0000    301.6450    628.7346      1.0000     12.8865      0.9500      0.5000      0.9500      0.5000      0.0100           0
DSOLMap_942     C                  2000.0000      0.0000    301.6450    628.7346      1.0000      5.0691      0.9500      0.5000      0.9500      0.5000      0.0100           0
DSOLMap_942     C                  2000.0000      0.0000    301.6450    628.7346      1.0000      1.3118      0.9500      0.5000      0.9500      0.5000      0.0100           0
DSOLMap_942     C                  2000.0000      0.0000    301.6450    628.7346      1.0000      0.5446      0.9500      0.5000      0.9500      0.5000      0.0100           0
DSOLMap_786     C                  2000.0000      0.0000    263.4500    637.9336      1.0000      4.4863      0.9500      0.5000      0.9500      0.5000      0.0100           0
DSOLMap_786     C                  2000.0000      0.0000    263.4500    637.9336      1.0000      1.2637      0.9500      0.5000      0.9500      0.5000      0.0100           0
DSOLMap_786     C                  2000.0000      0.0000    263.4500    637.9336      1.0000      0.5831      0.9500      0.5000      0.9500      0.5000      0.0100           0
DSOLMap_785     C                  2000.0000      0.0000    188.8390    605.6492      1.0000      0.4022      0.9500      0.5000      0.9500      0.5000      0.0100           0
DSOLMap_785     C                  2000.0000      0.0000    188.8390    605.6492      1.0000      4.3339      0.9500      0.5000      0.9500      0.5000      0.0100           0
DSOLMap_942     C                  2000.0000      0.0000    301.6450    628.7346      1.0000      5.0943      0.9500      0.5000      0.9500      0.5000      0.0100           0
DSOLMap_942     C                  2000.0000      0.0000    301.6450    628.7346      1.0000     13.4437      0.9500      0.5000      0.9500      0.5000      0.0100           0
DSOLMap_786     C                  2000.0000      0.0000    263.4500    637.9336      1.0000     11.5986      0.9500      0.5000      0.9500      0.5000      0.0100           0
DSOLMap_786     C                  2000.0000      0.0000    263.4500    637.9336      1.0000      5.6245      0.9500      0.5000      0.9500      0.5000      0.0100           0
DSOLMap_942     C                  2000.0000      0.0000    301.6450    628.7346      1.0000      5.3848      0.9500      0.5000      0.9500      0.5000      0.0100           0
DSOLMap_942     C                  2000.0000      0.0000    301.6450    628.7346      1.0000     13.5978      0.9500      0.5000      0.9500      0.5000      0.0100           0
DSOLMap_798     C                  2000.0000      0.0000    264.6300    617.2902      1.0000      6.8927      0.9500      0.5000      0.9500      0.5000      0.0100           0
DSOLMap_798     C                  2000.0000      0.0000    264.6300    617.2902      1.0000     13.4301      0.9500      0.5000      0.9500      0.5000      0.0100           0
DSOLMap_786     C                  2000.0000      0.0000    263.4500    637.9336      1.0000      5.3313      0.9500      0.5000      0.9500      0.5000      0.0100           0
DSOLMap_942     C                  2000.0000      0.0000    301.6450    628.7346      1.0000      4.4955      0.9500      0.5000      0.9500      0.5000      0.0100           0
DSOLMap_942     C                  2000.0000      0.0000    301.6450    628.7346      1.0000      1.5021      0.9500      0.5000      0.9500      0.5000      0.0100           0
DSOLMap_786     C                  2000.0000      0.0000    263.4500    637.9336      1.0000      4.9660      0.9500      0.5000      0.9500      0.5000      0.0100           0
DSOLMap_798     C                  2000.0000      0.0000    264.6300    617.2902      1.0000      5.3413      0.9500      0.5000      0.9500      0.5000      0.0100           0
DSOLMap_798     C                  2000.0000      0.0000    264.6300    617.2902      1.0000      1.2819      0.9500      0.5000      0.9500      0.5000      0.0100           0
DSOLMap_942     C                  2000.0000      0.0000    301.6450    628.7346      1.0000     13.6530      0.9500      0.5000      0.9500      0.5000      0.0100           0
DSOLMap_942     C                  2000.0000      0.0000    301.6450    628.7346      1.0000      5.4392      0.9500      0.5000      0.9500      0.5000      0.0100           0
DSOLMap_786     C                  2000.0000      0.0000    263.4500    637.9336      1.0000      5.2661      0.9500      0.5000      0.9500      0.5000      0.0100           0
DSOLMap_786     C                  2000.0000      0.0000    263.4500    637.9336      1.0000     10.0436      0.9500      0.5000      0.9500      0.5000      0.0100           0
DSOLMap_786     C                  2000.0000      0.0000    263.4500    637.9336      1.0000      4.4795      0.9500      0.5000      0.9500      0.5000      0.0100           0
DSOLMap_786     C                  2000.0000      0.0000    263.4500    637.9336      1.0000      1.4360      0.9500      0.5000      0.9500      0.5000      0.0100           0
DSOLMap_786     C                  2000.0000      0.0000    263.4500    637.9336      1.0000      0.5905      0.9500      0.5000      0.9500      0.5000      0.0100           0
DSOLMap_942     C                  2000.0000      0.0000    301.6450    628.7346      1.0000     11.9106      0.9500      0.5000      0.9500      0.5000      0.0100           0
DSOLMap_942     C                  2000.0000      0.0000    301.6450    628.7346      1.0000      5.5244      0.9500      0.5000      0.9500      0.5000      0.0100           0
DSOLMap_942     C                  2000.0000      0.0000    301.6450    628.7346      1.0000      0.7334      0.9500      0.5000      0.9500      0.5000      0.0100           0
DSOLMap_785     C                  2000.0000      0.0000    188.8390    605.6492      1.0000      1.3106      0.9500      0.5000      0.9500      0.5000      0.0100           0
DSOLMap_785     C                  2000.0000      0.0000    188.8390    605.6492      1.0000      0.4737      0.9500      0.5000      0.9500      0.5000      0.0100           0
DSOLMap_785     C                  2000.0000      0.0000    188.8390    605.6492      1.0000      3.6590      0.9500      0.5000      0.9500      0.5000      0.0100           0
DSOLMap_782     C                  2000.0000      0.0000    193.9890    563.9609      1.0000      5.3781      0.9500      0.5000      0.9500      0.5000      0.0100           0
DSOLMap_782     C                  2000.0000      0.0000    193.9890    563.9609      1.0000      1.2944      0.9500      0.5000      0.9500      0.5000      0.0100           0
DSOLMap_782     C                  2000.0000      0.0000    193.9890    563.9609      1.0000      0.6437      0.9500      0.5000      0.9500      0.5000      0.0100           0
DSOLMap_942     C                  2000.0000      0.0000    301.6450    628.7346      1.0000     11.5512      0.9500      0.5000      0.9500      0.5000      0.0100           0
DSOLMap_942     C                  2000.0000      0.0000    301.6450    628.7346      1.0000      5.5565      0.9500      0.5000      0.9500      0.5000      0.0100           0
DSOLMap_786     C                  2000.0000      0.0000    263.4500    637.9336      1.0000      5.0280      0.9500      0.5000      0.9500      0.5000      0.0100           0
DSOLMap_786     C                  2000.0000      0.0000    263.4500    637.9336      1.0000      1.4317      0.9500      0.5000      0.9500      0.5000      0.0100           0
DSOLMap_786     C                  2000.0000      0.0000    263.4500    637.9336      1.0000     13.4240      0.9500      0.5000      0.9500      0.5000      0.0100           0
DSOLMap_786     C                  2000.0000      0.0000    263.4500    637.9336      1.0000      5.4490      0.9500      0.5000      0.9500      0.5000      0.0100           0
DSOLMap_786     C                  2000.0000      0.0000    263.4500    637.9336      1.0000      1.3243      0.9500      0.5000      0.9500      0.5000      0.0100           0
DSOLMap_786     C                  2000.0000      0.0000    263.4500    637.9336      1.0000      0.5887      0.9500      0.5000      0.9500      0.5000      0.0100           0
DSOLMap_942     C                  2000.0000      0.0000    301.6450    628.7346      1.0000      5.5905      0.9500      0.5000      0.9500      0.5000      0.0100           0
DSOLMap_942     C                  2000.0000      0.0000    301.6450    628.7346      1.0000     12.9691      0.9500      0.5000      0.9500      0.5000      0.0100           0
DSOLMap_942     C                  2000.0000      0.0000    301.6450    628.7346      1.0000      4.8705      0.9500      0.5000      0.9500      0.5000      0.0100           0
DSOLMap_942     C                  2000.0000      0.0000    301.6450    628.7346      1.0000      1.3597      0.9500      0.5000      0.9500      0.5000      0.0100           0
DSOLMap_942     C                  2000.0000      0.0000    301.6450    628.7346      1.0000      0.5409      0.9500      0.5000      0.9500      0.5000      0.0100           0
DSOLMap_786     C                  2000.0000      0.0000    263.4500    637.9336      1.0000      4.0671      0.9500      0.5000      0.9500      0.5000      0.0100           0
DSOLMap_786     C                  2000.0000      0.0000    263.4500    637.9336      1.0000      0.4946      0.9500      0.5000      0.9500      0.5000      0.0100           0
DSOLMap_785     C                  2000.0000      0.0000    188.8390    605.6492      1.0000      0.4143      0.9500      0.5000      0.9500      0.5000      0.0100           0
DSOLMap_785     C                  2000.0000      0.0000    188.8390    605.6492      1.0000      1.2601      0.9500      0.5000      0.9500      0.5000      0.0100           0
DSOLMap_786     C                  2000.0000      0.0000    263.4500    637.9336      1.0000      1.3081      0.9500      0.5000      0.9500      0.5000      0.0100           0
DSOLMap_786     C                  2000.0000      0.0000    263.4500    637.9336      1.0000      3.2641      0.9500      0.5000      0.9500      0.5000      0.0100           0
DSOLMap_786     C                  2000.0000      0.0000    263.4500    637.9336      1.0000      0.6389      0.9500      0.5000      0.9500      0.5000      0.0100           0
DSOLMap_942     C                  2000.0000      0.0000    301.6450    628.7346      1.0000      1.2808      0.9500      0.5000      0.9500      0.5000      0.0100           0
DSOLMap_942     C                  2000.0000      0.0000    301.6450    628.7346      1.0000      4.5892      0.9500      0.5000      0.9500      0.5000      0.0100           0
DSOLMap_942     C                  2000.0000      0.0000    301.6450    628.7346      1.0000      0.6036      0.9500      0.5000      0.9500      0.5000      0.0100           0
DSOLMap_785     C                  2000.0000      0.0000    188.8390    605.6492      1.0000      0.9495      0.9500      0.5000      0.9500      0.5000      0.0100           0
DSOLMap_785     C                  2000.0000      0.0000    188.8390    605.6492      1.0000      0.6129      0.9500      0.5000      0.9500      0.5000      0.0100           0
DSOLMap_942     C                  2000.0000      0.0000    301.6450    628.7346      1.0000     12.5198      0.9500      0.5000      0.9500      0.5000      0.0100           0
DSOLMap_942     C                  2000.0000      0.0000    301.6450    628.7346      1.0000      5.0093      0.9500      0.5000      0.9500      0.5000      0.0100           0
DSOLMap_786     C                  2000.0000      0.0000    263.4500    637.9336      1.0000      5.1117      0.9500      0.5000      0.9500      0.5000      0.0100           0
DSOLMap_786     C                  2000.0000      0.0000    263.4500    637.9336      1.0000     13.4707      0.9500      0.5000      0.9500      0.5000      0.0100           0
DSOLMap_798     C                  2000.0000      0.0000    264.6300    617.2902      1.0000      5.7419      0.9500      0.5000      0.9500      0.5000      0.0100           0
DSOLMap_798     C                  2000.0000      0.0000    264.6300    617.2902      1.0000     11.7211      0.9500      0.5000      0.9500      0.5000      0.0100           0
DSOLMap_942     C                  2000.0000      0.0000    301.6450    628.7346      1.0000      9.9625      0.9500      0.5000      0.9500      0.5000      0.0100           0
DSOLMap_942     C                  2000.0000      0.0000    301.6450    628.7346      1.0000      4.6345      0.9500      0.5000      0.9500      0.5000      0.0100           0
DSOLMap_942     C                  2000.0000      0.0000    301.6450    628.7346      1.0000      1.2519      0.9500      0.5000      0.9500      0.5000      0.0100           0
DSOLMap_942     C                  2000.0000      0.0000    301.6450    628.7346      1.0000      0.6309      0.9500      0.5000      0.9500      0.5000      0.0100           0
DSOLMap_798     C                  2000.0000      0.0000    264.6300    617.2902      1.0000      1.2039      0.9500      0.5000      0.9500      0.5000      0.0100           0
DSOLMap_798     C                  2000.0000      0.0000    264.6300    617.2902      1.0000      6.4284      0.9500      0.5000      0.9500      0.5000      0.0100           0
DSOLMap_798     C                  2000.0000      0.0000    264.6300    617.2902      1.0000     11.7137      0.9500      0.5000      0.9500      0.5000      0.0100           0
DSOLMap_798     C                  2000.0000      0.0000    264.6300    617.2902      1.0000      0.9389      0.9500      0.5000      0.9500      0.5000      0.0100           0
DSOLMap_786     C                  2000.0000      0.0000    263.4500    637.9336      1.0000      7.0062      0.9500      0.5000      0.9500      0.5000      0.0100           0
DSOLMap_786     C                  2000.0000      0.0000    263.4500    637.9336      1.0000     11.3674      0.9500      0.5000      0.9500      0.5000      0.0100           0
DSOLMap_786     C                  2000.0000      0.0000    263.4500    637.9336      1.0000      1.1365      0.9500      0.5000      0.9500      0.5000      0.0100           0
DSOLMap_942     C                  2000.0000      0.0000    301.6450    628.7346      1.0000     13.0594      0.9500      0.5000      0.9500      0.5000      0.0100           0
DSOLMap_942     C                  2000.0000      0.0000    301.6450    628.7346      1.0000      1.4564      0.9500      0.5000      0.9500      0.5000      0.0100           0
DSOLMap_942     C                  2000.0000      0.0000    301.6450    628.7346      1.0000      5.2548      0.9500      0.5000      0.9500      0.5000      0.0100           0
DSOLMap_798     C                  2000.0000      0.0000    264.6300    617.2902      1.0000      4.8319      0.9500      0.5000      0.9500      0.5000      0.0100           0
DSOLMap_798     C                  2000.0000      0.0000    264.6300    617.2902      1.0000     13.1337      0.9500      0.5000      0.9500      0.5000      0.0100           0
DSOLMap_798     C                  2000.0000      0.0000    264.6300    617.2902      1.0000      1.8715      0.9500      0.5000      0.9500      0.5000      0.0100           0
DSOLMap_786     C                  2000.0000      0.0000    263.4500    637.9336      1.0000      4.1063      0.9500      0.5000      0.9500      0.5000      0.0100           0
DSOLMap_786     C                  2000.0000      0.0000    263.4500    637.9336      1.0000      1.2025      0.9500      0.5000      0.9500      0.5000      0.0100           0
DSOLMap_786     C                  2000.0000      0.0000    263.4500    637.9336      1.0000     14.7792      0.9500      0.5000      0.9500      0.5000      0.0100           0
DSOLMap_942     C                  2000.0000      0.0000    301.6450    628.7346      1.0000      3.6552      0.9500      0.5000      0.9500      0.5000      0.0100           0
DSOLMap_942     C                  2000.0000      0.0000    301.6450    628.7346      1.0000      0.6078      0.9500      0.5000      0.9500      0.5000      0.0100           0
DSOLMap_942     C                  2000.0000      0.0000    301.6450    628.7346      1.0000      1.5029      0.9500      0.5000      0.9500      0.5000      0.0100           0
DSOLMap_786     C                  2000.0000      0.0000    263.4500    637.9336      1.0000     11.5580      0.9500      0.5000      0.9500      0.5000      0.0100           0
DSOLMap_786     C                  2000.0000      0.0000    263.4500    637.9336      1.0000      4.4237      0.9500      0.5000      0.9500      0.5000      0.0100           0
DSOLMap_786     C                  2000.0000      0.0000    263.4500    637.9336      1.0000      0.7488      0.9500      0.5000      0.9500      0.5000      0.0100           0
DSOLMap_786     C                  2000.0000      0.0000    263.4500    637.9336      1.0000      1.3221      0.9500      0.5000      0.9500      0.5000      0.0100           0
DSOLMap_942     C                  2000.0000      0.0000    301.6450    628.7346      1.0000      5.7762      0.9500      0.5000      0.9500      0.5000      0.0100           0
DSOLMap_942     C                  2000.0000      0.0000    301.6450    628.7346      1.0000     18.7982      0.9500      0.5000      0.9500      0.5000      0.0100           0
DSOLMap_1413    C                  2000.0000      0.0000    386.4500    795.2902      1.0000      5.4118      0.9500      0.5000      0.9500      0.5000      0.0100           0
DSOLMap_1413    C                  2000.0000      0.0000    386.4500    795.2902      1.0000     13.4365      0.9500      0.5000      0.9500      0.5000      0.0100           0
DSOLMap_1409    C                  2000.0000      0.0000    291.1800    665.2479      1.0000     14.1924      0.9500      0.5000      0.9500      0.5000      0.0100           0
DSOLMap_1409    C                  2000.0000      0.0000    291.1800    665.2479      1.0000      6.5984      0.9500      0.5000      0.9500      0.5000      0.0100           0
DSOLMap_942     C                  2000.0000      0.0000    301.6450    628.7346      1.0000     18.1564      0.9500      0.5000      0.9500      0.5000      0.0100           0
DSOLMap_942     C                  2000.0000      0.0000    301.6450    628.7346      1.0000      5.7217      0.9500      0.5000      0.9500      0.5000      0.0100           0
DSOLMap_942     C                  2000.0000      0.0000    301.6450    628.7346      1.0000      5.6313      0.9500      0.5000      0.9500      0.5000      0.0100           0
DSOLMap_942     C                  2000.0000      0.0000    301.6450    628.7346      1.0000     16.3899      0.9500      0.5000      0.9500      0.5000      0.0100           0
DSOLMap_786     C                  2000.0000      0.0000    263.4500    637.9336      1.0000      5.8450      0.9500      0.5000      0.9500      0.5000      0.0100           0
DSOLMap_786     C                  2000.0000      0.0000    263.4500    637.9336      1.0000     11.8296      0.9500      0.5000      0.9500      0.5000      0.0100           0
DSOLMap_942     C                  2000.0000      0.0000    301.6450    628.7346      1.0000      4.9990      0.9500      0.5000      0.9500      0.5000      0.0100           0
DSOLMap_942     C                  2000.0000      0.0000    301.6450    628.7346      1.0000     13.0267      0.9500      0.5000      0.9500      0.5000      0.0100           0
DSOLMap_942     C                  2000.0000      0.0000    301.6450    628.7346      1.0000      1.3704      0.9500      0.5000      0.9500      0.5000      0.0100           0
DSOLMap_798     C                  2000.0000      0.0000    264.6300    617.2902      1.0000     11.2251      0.9500      0.5000      0.9500      0.5000      0.0100           0
DSOLMap_798     C                  2000.0000      0.0000    264.6300    617.2902      1.0000      5.5540      0.9500      0.5000      0.9500      0.5000      0.0100           0
DSOLMap_942     C                  2000.0000      0.0000    301.6450    628.7346      1.0000     11.9421      0.9500      0.5000      0.9500      0.5000      0.0100           0
DSOLMap_942     C                  2000.0000      0.0000    301.6450    628.7346      1.0000      5.6462      0.9500      0.5000      0.9500      0.5000      0.0100           0
DSOLMap_798     C                  2000.0000      0.0000    264.6300    617.2902      1.0000      5.2605      0.9500      0.5000      0.9500      0.5000      0.0100           0
DSOLMap_786     C                  2000.0000      0.0000    263.4500    637.9336      1.0000      5.6117      0.9500      0.5000      0.9500      0.5000      0.0100           0
DSOLMap_786     C                  2000.0000      0.0000    263.4500    637.9336      1.0000      0.7580      0.9500      0.5000      0.9500      0.5000      0.0100           0
DSOLMap_942     C                  2000.0000      0.0000    301.6450    628.7346      1.0000      0.6565      0.9500      0.5000      0.9500      0.5000      0.0100           0
DSOLMap_942     C                  2000.0000      0.0000    301.6450    628.7346      1.0000      1.1319      0.9500      0.5000      0.9500      0.5000      0.0100           0
DSOLMap_785     C                  2000.0000      0.0000    188.8390    605.6492      1.0000      0.7731      0.9500      0.5000      0.9500      0.5000      0.0100           0
DSOLMap_785     C                  2000.0000      0.0000    188.8390    605.6492      1.0000      1.1032      0.9500      0.5000      0.9500      0.5000      0.0100           0
DSOLMap_786     C                  2000.0000      0.0000    263.4500    637.9336      1.0000      1.1098      0.9500      0.5000      0.9500      0.5000      0.0100           0
DSOLMap_786     C                  2000.0000      0.0000    263.4500    637.9336      1.0000      0.7110      0.9500      0.5000      0.9500      0.5000      0.0100           0
DSOLMap_786     C                  2000.0000      0.0000    263.4500    637.9336      1.0000      4.9114      0.9500      0.5000      0.9500      0.5000      0.0100           0
DSOLMap_942     C                  2000.0000      0.0000    301.6450    628.7346      1.0000     13.5022      0.9500      0.5000      0.9500      0.5000      0.0100           0
DSOLMap_942     C                  2000.0000      0.0000    301.6450    628.7346      1.0000      4.8232      0.9500      0.5000      0.9500      0.5000      0.0100           0
DSOLMap_942     C                  2000.0000      0.0000    301.6450    628.7346      1.0000      1.4901      0.9500      0.5000      0.9500      0.5000      0.0100           0
DSOLMap_786     C                  2000.0000      0.0000    263.4500    637.9336      1.0000      4.5485      0.9500      0.5000      0.9500      0.5000      0.0100           0
DSOLMap_786     C                  2000.0000      0.0000    263.4500    637.9336      1.0000      1.5612      0.9500      0.5000      0.9500      0.5000      0.0100           0
DSOLMap_786     C                  2000.0000      0.0000    263.4500    637.9336      1.0000      0.4607      0.9500      0.5000      0.9500      0.5000      0.0100           0
DSOLMap_942     C                  2000.0000      0.0000    301.6450    628.7346      1.0000      4.9842      0.9500      0.5000      0.9500      0.5000      0.0100           0
DSOLMap_786     C                  2000.0000      0.0000    263.4500    637.9336      1.0000      4.3844      0.9500      0.5000      0.9500      0.5000      0.0100           0
DSOLMap_942     C                  2000.0000      0.0000    301.6450    628.7346      1.0000      4.6640      0.9500      0.5000      0.9500      0.5000      0.0100           0
DSOLMap_942     C                  2000.0000      0.0000    301.6450    628.7346      1.0000      1.5704      0.9500      0.5000      0.9500      0.5000      0.0100           0
DSOLMap_942     C                  2000.0000      0.0000    301.6450    628.7346      1.0000      0.5090      0.9500      0.5000      0.9500      0.5000      0.0100           0
DSOLMap_786     C                  2000.0000      0.0000    263.4500    637.9336      1.0000      1.4693      0.9500      0.5000      0.9500      0.5000      0.0100           0
DSOLMap_786     C                  2000.0000      0.0000    263.4500    637.9336      1.0000      3.2771      0.9500      0.5000      0.9500      0.5000      0.0100           0
DSOLMap_786     C                  2000.0000      0.0000    263.4500    637.9336      1.0000      0.4223      0.9500      0.5000      0.9500      0.5000      0.0100           0
DSOLMap_785     C                  2000.0000      0.0000    188.8390    605.6492      1.0000      0.5992      0.9500      0.5000      0.9500      0.5000      0.0100           0
DSOLMap_785     C                  2000.0000      0.0000    188.8390    605.6492      1.0000      1.2976      0.9500      0.5000      0.9500      0.5000      0.0100           0
DSOLMap_785     C                  2000.0000      0.0000    188.8390    605.6492      1.0000      3.9797      0.9500      0.5000      0.9500      0.5000      0.0100           0
DSOLMap_942     C                  2000.0000      0.0000    301.6450    628.7346      1.0000     14.1190      0.9500      0.5000      0.9500      0.5000      0.0100           0
DSOLMap_942     C                  2000.0000      0.0000    301.6450    628.7346      1.0000      6.0045      0.9500      0.5000      0.9500      0.5000      0.0100           0
DSOLMap_942     C                  2000.0000      0.0000    301.6450    628.7346      1.0000      5.1333      0.9500      0.5000      0.9500      0.5000      0.0100           0
DSOLMap_942     C                  2000.0000      0.0000    301.6450    628.7346      1.0000      1.4228      0.9500      0.5000      0.9500      0.5000      0.0100           0
DSOLMap_942     C                  2000.0000      0.0000    301.6450    628.7346      1.0000      0.6009      0.9500      0.5000      0.9500      0.5000      0.0100           0
DSOLMap_786     C                  2000.0000      0.0000    263.4500    637.9336      1.0000      3.9450      0.9500      0.5000      0.9500      0.5000      0.0100           0
DSOLMap_786     C                  2000.0000      0.0000    263.4500    637.9336      1.0000      1.3720      0.9500      0.5000      0.9500      0.5000      0.0100           0
DSOLMap_786     C                  2000.0000      0.0000    263.4500    637.9336      1.0000      0.4980      0.9500      0.5000      0.9500      0.5000      0.0100           0
DSOLMap_785     C                  2000.0000      0.0000    188.8390    605.6492      1.0000      0.3834      0.9500      0.5000      0.9500      0.5000      0.0100           0
DSOLMap_785     C                  2000.0000      0.0000    188.8390    605.6492      1.0000      4.0326      0.9500      0.5000      0.9500      0.5000      0.0100           0
DSOLMap_942     C                  2000.0000      0.0000    301.6450    628.7346      1.0000      4.7356      0.9500      0.5000      0.9500      0.5000      0.0100           0
DSOLMap_942     C                  2000.0000      0.0000    301.6450    628.7346      1.0000      1.2836      0.9500      0.5000      0.9500      0.5000      0.0100           0
DSOLMap_942     C                  2000.0000      0.0000    301.6450    628.7346      1.0000      0.5421      0.9500      0.5000      0.9500      0.5000      0.0100           0
DSOLMap_785     C                  2000.0000      0.0000    188.8390    605.6492      1.0000      0.4343      0.9500      0.5000      0.9500      0.5000      0.0100           0
DSOLMap_785     C                  2000.0000      0.0000    188.8390    605.6492      1.0000      1.2744      0.9500      0.5000      0.9500      0.5000      0.0100           0
DSOLMap_785     C                  2000.0000      0.0000    188.8390    605.6492      1.0000      4.8203      0.9500      0.5000      0.9500      0.5000      0.0100           0
DSOLMap_786     C                  2000.0000      0.0000    263.4500    637.9336      1.0000      0.4060      0.9500      0.5000      0.9500      0.5000      0.0100           0
DSOLMap_786     C                  2000.0000      0.0000    263.4500    637.9336      1.0000      4.5882      0.9500      0.5000      0.9500      0.5000      0.0100           0
DSOLMap_942     C                  2000.0000      0.0000    301.6450    628.7346      1.0000     18.7804      0.9500      0.5000      0.9500      0.5000      0.0100           0
DSOLMap_942     C                  2000.0000      0.0000    301.6450    628.7346      1.0000      5.1458      0.9500      0.5000      0.9500      0.5000      0.0100           0
DSOLMap_942     C                  2000.0000      0.0000    301.6450    628.7346      1.0000     15.6222      0.9500      0.5000      0.9500      0.5000      0.0100           0
DSOLMap_942     C                  2000.0000      0.0000    301.6450    628.7346      1.0000      5.1443      0.9500      0.5000      0.9500      0.5000      0.0100           0
DSOLMap_942     C                  2000.0000      0.0000    301.6450    628.7346      1.0000     19.1398      0.9500      0.5000      0.9500      0.5000      0.0100           0
DSOLMap_942     C                  2000.0000      0.0000    301.6450    628.7346      1.0000      4.8114      0.9500      0.5000      0.9500      0.5000      0.0100           0
DSOLMap_1413    C                  2000.0000      0.0000    386.4500    795.2902      1.0000      5.3045      0.9500      0.5000      0.9500      0.5000      0.0100           0
DSOLMap_1413    C                  2000.0000      0.0000    386.4500    795.2902      1.0000     15.9504      0.9500      0.5000      0.9500      0.5000      0.0100           0
DSOLMap_1413    C                  2000.0000      0.0000    386.4500    795.2902      1.0000      1.3769      0.9500      0.5000      0.9500      0.5000      0.0100           0
DSOLMap_786     C                  2000.0000      0.0000    263.4500    637.9336      1.0000     11.7160      0.9500      0.5000      0.9500      0.5000      0.0100           0
DSOLMap_786     C                  2000.0000      0.0000    263.4500    637.9336      1.0000      5.7366      0.9500      0.5000      0.9500      0.5000      0.0100           0
DSOLMap_786     C                  2000.0000      0.0000    263.4500    637.9336      1.0000      0.4270      0.9500      0.5000      0.9500      0.5000      0.0100           0
DSOLMap_942     C                  2000.0000      0.0000    301.6450    628.7346      1.0000     12.0081      0.9500      0.5000      0.9500      0.5000      0.0100           0
DSOLMap_942     C                  2000.0000      0.0000    301.6450    628.7346      1.0000      6.3475      0.9500      0.5000      0.9500      0.5000      0.0100           0
DSOLMap_942     C                  2000.0000      0.0000    301.6450    628.7346      1.0000      0.3342      0.9500      0.5000      0.9500      0.5000      0.0100           0
DSOLMap_942     C                  2000.0000      0.0000    301.6450    628.7346      1.0000      5.6346      0.9500      0.5000      0.9500      0.5000      0.0100           0
DSOLMap_942     C                  2000.0000      0.0000    301.6450    628.7346      1.0000      0.4160      0.9500      0.5000      0.9500      0.5000      0.0100           0
DSOLMap_786     C                  2000.0000      0.0000    263.4500    637.9336      1.0000      5.1783      0.9500      0.5000      0.9500      0.5000      0.0100           0
DSOLMap_786     C                  2000.0000      0.0000    263.4500    637.9336      1.0000      0.4243      0.9500      0.5000      0.9500      0.5000      0.0100           0
DSOLMap_785     C                  2000.0000      0.0000    188.8390    605.6492      1.0000      0.5054      0.9500      0.5000      0.9500      0.5000      0.0100           0
DSOLMap_785     C                  2000.0000      0.0000    188.8390    605.6492      1.0000      4.2390      0.9500      0.5000      0.9500      0.5000      0.0100           0
DSOLMap_785     C                  2000.0000      0.0000    188.8390    605.6492      1.0000      1.3263      0.9500      0.5000      0.9500      0.5000      0.0100           0
DSOLMap_786     C                  2000.0000      0.0000    263.4500    637.9336      1.0000      4.1568      0.9500      0.5000      0.9500      0.5000      0.0100           0
DSOLMap_786     C                  2000.0000      0.0000    263.4500    637.9336      1.0000      1.2272      0.9500      0.5000      0.9500      0.5000      0.0100           0
DSOLMap_786     C                  2000.0000      0.0000    263.4500    637.9336      1.0000      0.5577      0.9500      0.5000      0.9500      0.5000      0.0100           0
DSOLMap_785     C                  2000.0000      0.0000    188.8390    605.6492      1.0000      3.7100      0.9500      0.5000      0.9500      0.5000      0.0100           0
DSOLMap_785     C                  2000.0000      0.0000    188.8390    605.6492      1.0000      1.2398      0.9500      0.5000      0.9500      0.5000      0.0100           0
DSOLMap_785     C                  2000.0000      0.0000    188.8390    605.6492      1.0000      0.6075      0.9500      0.5000      0.9500      0.5000      0.0100           0
DSOLMap_942     C                  2000.0000      0.0000    301.6450    628.7346      1.0000      6.4394      0.9500      0.5000      0.9500      0.5000      0.0100           0
DSOLMap_942     C                  2000.0000      0.0000    301.6450    628.7346      1.0000     12.1984      0.9500      0.5000      0.9500      0.5000      0.0100           0
DSOLMap_942     C                  2000.0000      0.0000    301.6450    628.7346      1.0000      0.4270      0.9500      0.5000      0.9500      0.5000      0.0100           0
DSOLMap_786     C                  2000.0000      0.0000    263.4500    637.9336      1.0000      5.4275      0.9500      0.5000      0.9500      0.5000      0.0100           0
DSOLMap_786     C                  2000.0000      0.0000    263.4500    637.9336      1.0000     13.2373      0.9500      0.5000      0.9500      0.5000      0.0100           0
DSOLMap_786     C                  2000.0000      0.0000    263.4500    637.9336      1.0000      0.3252      0.9500      0.5000      0.9500      0.5000      0.0100           0
DSOLMap_942     C                  2000.0000      0.0000    301.6450    628.7346      1.0000      5.6425      0.9500      0.5000      0.9500      0.5000      0.0100           0
DSOLMap_942     C                  2000.0000      0.0000    301.6450    628.7346      1.0000      0.3399      0.9500      0.5000      0.9500      0.5000      0.0100           0
DSOLMap_786     C                  2000.0000      0.0000    263.4500    637.9336      1.0000      5.0566      0.9500      0.5000      0.9500      0.5000      0.0100           0
DSOLMap_786     C                  2000.0000      0.0000    263.4500    637.9336      1.0000      0.3299      0.9500      0.5000      0.9500      0.5000      0.0100           0
DSOLMap_785     C                  2000.0000      0.0000    188.8390    605.6492      1.0000      1.2572      0.9500      0.5000      0.9500      0.5000      0.0100           0
DSOLMap_785     C                  2000.0000      0.0000    188.8390    605.6492      1.0000      0.4108      0.9500      0.5000      0.9500      0.5000      0.0100           0
DSOLMap_785     C                  2000.0000      0.0000    188.8390    605.6492      1.0000      4.6473      0.9500      0.5000      0.9500      0.5000      0.0100           0
DSOLMap_942     C                  2000.0000      0.0000    301.6450    628.7346      1.0000      6.1488      0.9500      0.5000      0.9500      0.5000      0.0100           0
DSOLMap_942     C                  2000.0000      0.0000    301.6450    628.7346      1.0000     11.8587      0.9500      0.5000      0.9500      0.5000      0.0100           0
DSOLMap_786     C                  2000.0000      0.0000    263.4500    637.9336      1.0000      5.7572      0.9500      0.5000      0.9500      0.5000      0.0100           0
DSOLMap_786     C                  2000.0000      0.0000    263.4500    637.9336      1.0000      0.4615      0.9500      0.5000      0.9500      0.5000      0.0100           0
DSOLMap_786     C                  2000.0000      0.0000    263.4500    637.9336      1.0000     11.8514      0.9500      0.5000      0.9500      0.5000      0.0100           0
DSOLMap_942     C                  2000.0000      0.0000    301.6450    628.7346      1.0000      5.6928      0.9500      0.5000      0.9500      0.5000      0.0100           0
DSOLMap_942     C                  2000.0000      0.0000    301.6450    628.7346      1.0000      0.2000      0.9500      0.5000      0.9500      0.5000      0.0100           0
DSOLMap_942     C                  2000.0000      0.0000    301.6450    628.7346      1.0000      1.2466      0.9500      0.5000      0.9500      0.5000      0.0100           0
DSOLMap_786     C                  2000.0000      0.0000    263.4500    637.9336      1.0000      4.7131      0.9500      0.5000      0.9500      0.5000      0.0100           0
DSOLMap_786     C                  2000.0000      0.0000    263.4500    637.9336      1.0000      1.1953      0.9500      0.5000      0.9500      0.5000      0.0100           0
DSOLMap_786     C                  2000.0000      0.0000    263.4500    637.9336      1.0000      0.4223      0.9500      0.5000      0.9500      0.5000      0.0100           0
DSOLMap_786     C                  2000.0000      0.0000    263.4500    637.9336      1.0000     13.2627      0.9500      0.5000      0.9500      0.5000      0.0100           0
DSOLMap_785     C                  2000.0000      0.0000    188.8390    605.6492      1.0000      4.2669      0.9500      0.5000      0.9500      0.5000      0.0100           0
DSOLMap_785     C                  2000.0000      0.0000    188.8390    605.6492      1.0000      1.2592      0.9500      0.5000      0.9500      0.5000      0.0100           0
DSOLMap_785     C                  2000.0000      0.0000    188.8390    605.6492      1.0000      0.5688      0.9500      0.5000      0.9500      0.5000      0.0100           0
DSOLMap_786     C                  2000.0000      0.0000    263.4500    637.9336      0.7500      0.2743      0.9500      0.5000      0.9500      0.5000      0.0100           0
DSOLMap_785     C                  2000.0000      0.0000    188.8390    605.6492      0.7500      0.2733      0.9500      0.5000      0.9500      0.5000      0.0100           0
DSOLMap_1410    C                  2000.0000      0.0000    281.4650    580.7205      0.7500      0.2639      0.9500      0.5000      0.9500      0.5000      0.0100           0
DSOLMap_942     C                  2000.0000      0.0000    301.6450    628.7346      1.0000      0.5842      0.9500      0.5000      0.9500      0.5000      0.0100           0
DSOLMap_942     C                  2000.0000      0.0000    301.6450    628.7346      1.0000      1.1811      0.9500      0.5000      0.9500      0.5000      0.0100           0
DSOLMap_942     C                  2000.0000      0.0000    301.6450    628.7346      1.0000      4.6362      0.9500      0.5000      0.9500      0.5000      0.0100           0
DSOLMap_785     C                  2000.0000      0.0000    188.8390    605.6492      1.0000      3.6047      0.9500      0.5000      0.9500      0.5000      0.0100           0
DSOLMap_785     C                  2000.0000      0.0000    188.8390    605.6492      1.0000      0.3770      0.9500      0.5000      0.9500      0.5000      0.0100           0
DSOLMap_786     C                  2000.0000      0.0000    263.4500    637.9336      1.0000      0.4073      0.9500      0.5000      0.9500      0.5000      0.0100           0
DSOLMap_786     C                  2000.0000      0.0000    263.4500    637.9336      1.0000      4.1923      0.9500      0.5000      0.9500      0.5000      0.0100           0
DSOLMap_942     C                  2000.0000      0.0000    301.6450    628.7346      1.0000      0.6003      0.9500      0.5000      0.9500      0.5000      0.0100           0
DSOLMap_942     C                  2000.0000      0.0000    301.6450    628.7346      1.0000      5.6447      0.9500      0.5000      0.9500      0.5000      0.0100           0
DSOLMap_942     C                  2000.0000      0.0000    301.6450    628.7346      1.0000     12.7636      0.9500      0.5000      0.9500      0.5000      0.0100           0
DSOLMap_942     C                  2000.0000      0.0000    301.6450    628.7346      1.0000     11.5752      0.9500      0.5000      0.9500      0.5000      0.0100           0
DSOLMap_942     C                  2000.0000      0.0000    301.6450    628.7346      1.0000      5.9755      0.9500      0.5000      0.9500      0.5000      0.0100           0
DSOLMap_942     C                  2000.0000      0.0000    301.6450    628.7346      1.0000      0.5599      0.9500      0.5000      0.9500      0.5000      0.0100           0
DSOLMap_786     C                  2000.0000      0.0000    263.4500    637.9336      1.0000      4.5911      0.9500      0.5000      0.9500      0.5000      0.0100           0
DSOLMap_942     C                  2000.0000      0.0000    301.6450    628.7346      1.0000      5.8322      0.9500      0.5000      0.9500      0.5000      0.0100           0
DSOLMap_942     C                  2000.0000      0.0000    301.6450    628.7346      1.0000     13.0068      0.9500      0.5000      0.9500      0.5000      0.0100           0
DSOLMap_786     C                  2000.0000      0.0000    263.4500    637.9336      1.0000     13.0949      0.9500      0.5000      0.9500      0.5000      0.0100           0
DSOLMap_786     C                  2000.0000      0.0000    263.4500    637.9336      1.0000      5.8956      0.9500      0.5000      0.9500      0.5000      0.0100           0
DSOLMap_786     C                  2000.0000      0.0000    263.4500    637.9336      1.0000      0.5138      0.9500      0.5000      0.9500      0.5000      0.0100           0
DSOLMap_942     C                  2000.0000      0.0000    301.6450    628.7346      1.0000      5.8828      0.9500      0.5000      0.9500      0.5000      0.0100           0
DSOLMap_942     C                  2000.0000      0.0000    301.6450    628.7346      1.0000      0.4607      0.9500      0.5000      0.9500      0.5000      0.0100           0
DSOLMap_786     C                  2000.0000      0.0000    263.4500    637.9336      1.0000      5.0901      0.9500      0.5000      0.9500      0.5000      0.0100           0
DSOLMap_786     C                  2000.0000      0.0000    263.4500    637.9336      1.0000      0.4199      0.9500      0.5000      0.9500      0.5000      0.0100           0
DSOLMap_785     C                  2000.0000      0.0000    188.8390    605.6492      1.0000      6.3529      0.9500      0.5000      0.9500      0.5000      0.0100           0
DSOLMap_785     C                  2000.0000      0.0000    188.8390    605.6492      1.0000     10.9729      0.9500      0.5000      0.9500      0.5000      0.0100           0
DSOLMap_785     C                  2000.0000      0.0000    188.8390    605.6492      1.0000      0.4836      0.9500      0.5000      0.9500      0.5000      0.0100           0
DSOLMap_942     C                  2000.0000      0.0000    301.6450    628.7346      1.0000      4.8365      0.9500      0.5000      0.9500      0.5000      0.0100           0
DSOLMap_942     C                  2000.0000      0.0000    301.6450    628.7346      1.0000      0.5281      0.9500      0.5000      0.9500      0.5000      0.0100           0
DSOLMap_786     C                  2000.0000      0.0000    263.4500    637.9336      1.0000      4.1284      0.9500      0.5000      0.9500      0.5000      0.0100           0
DSOLMap_786     C                  2000.0000      0.0000    263.4500    637.9336      1.0000      0.5440      0.9500      0.5000      0.9500      0.5000      0.0100           0
DSOLMap_786     C                  2000.0000      0.0000    263.4500    637.9336      1.0000      1.2525      0.9500      0.5000      0.9500      0.5000      0.0100           0
DSOLMap_785     C                  2000.0000      0.0000    188.8390    605.6492      1.0000      0.7468      0.9500      0.5000      0.9500      0.5000      0.0100           0
DSOLMap_785     C                  2000.0000      0.0000    188.8390    605.6492      1.0000      3.9489      0.9500      0.5000      0.9500      0.5000      0.0100           0
DSOLMap_786     C                  2000.0000      0.0000    263.4500    637.9336      1.0000      0.4465      0.9500      0.5000      0.9500      0.5000      0.0100           0
DSOLMap_786     C                  2000.0000      0.0000    263.4500    637.9336      1.0000      4.5310      0.9500      0.5000      0.9500      0.5000      0.0100           0
DSOLMap_942     C                  2000.0000      0.0000    301.6450    628.7346      1.0000      0.4549      0.9500      0.5000      0.9500      0.5000      0.0100           0
DSOLMap_785     C                  2000.0000      0.0000    188.8390    605.6492      1.0000      0.5443      0.9500      0.5000      0.9500      0.5000      0.0100           0
DSOLMap_942     C                  2000.0000      0.0000    301.6450    628.7346      1.0000     12.5616      0.9500      0.5000      0.9500      0.5000      0.0100           0
DSOLMap_942     C                  2000.0000      0.0000    301.6450    628.7346      1.0000      6.4185      0.9500      0.5000      0.9500      0.5000      0.0100           0
DSOLMap_942     C                  2000.0000      0.0000    301.6450    628.7346      1.0000      0.4020      0.9500      0.5000      0.9500      0.5000      0.0100           0
DSOLMap_786     C                  2000.0000      0.0000    263.4500    637.9336      1.0000     12.3582      0.9500      0.5000      0.9500      0.5000      0.0100           0
DSOLMap_786     C                  2000.0000      0.0000    263.4500    637.9336      1.0000      5.4770      0.9500      0.5000      0.9500      0.5000      0.0100           0
DSOLMap_786     C                  2000.0000      0.0000    263.4500    637.9336      1.0000      0.6000      0.9500      0.5000      0.9500      0.5000      0.0100           0
DSOLMap_942     C                  2000.0000      0.0000    301.6450    628.7346      1.0000      6.2579      0.9500      0.5000      0.9500      0.5000      0.0100           0
DSOLMap_786     C                  2000.0000      0.0000    263.4500    637.9336      1.0000      4.6423      0.9500      0.5000      0.9500      0.5000      0.0100           0
DSOLMap_786     C                  2000.0000      0.0000    263.4500    637.9336      1.0000      1.3559      0.9500      0.5000      0.9500      0.5000      0.0100           0
DSOLMap_786     C                  2000.0000      0.0000    263.4500    637.9336      1.0000      0.4034      0.9500      0.5000      0.9500      0.5000      0.0100           0
DSOLMap_785     C                  2000.0000      0.0000    188.8390    605.6492      1.0000      4.2748      0.9500      0.5000      0.9500      0.5000      0.0100           0
DSOLMap_785     C                  2000.0000      0.0000    188.8390    605.6492      1.0000     11.0514      0.9500      0.5000      0.9500      0.5000      0.0100           0
DSOLMap_785     C                  2000.0000      0.0000    188.8390    605.6492      1.0000      1.1837      0.9500      0.5000      0.9500      0.5000      0.0100           0
DSOLMap_785     C                  2000.0000      0.0000    188.8390    605.6492      1.0000      0.4036      0.9500      0.5000      0.9500      0.5000      0.0100           0
DSOLMap_785     C                  2000.0000      0.0000    188.8390    605.6492      1.0000     11.8973      0.9500      0.5000      0.9500      0.5000      0.0100           0
DSOLMap_785     C                  2000.0000      0.0000    188.8390    605.6492      1.0000      5.0962      0.9500      0.5000      0.9500      0.5000      0.0100           0
DSOLMap_785     C                  2000.0000      0.0000    188.8390    605.6492      1.0000      0.5530      0.9500      0.5000      0.9500      0.5000      0.0100           0
DSOLMap_785     C                  2000.0000      0.0000    188.8390    605.6492      1.0000      1.3566      0.9500      0.5000      0.9500      0.5000      0.0100           0
DSOLMap_786     C                  2000.0000      0.0000    263.4500    637.9336      1.0000      5.6243      0.9500      0.5000      0.9500      0.5000      0.0100           0
DSOLMap_786     C                  2000.0000      0.0000    263.4500    637.9336      1.0000      0.3276      0.9500      0.5000      0.9500      0.5000      0.0100           0
DSOLMap_786     C                  2000.0000      0.0000    263.4500    637.9336      1.0000      0.9908      0.9500      0.5000      0.9500      0.5000      0.0100           0
DSOLMap_942     C                  2000.0000      0.0000    301.6450    628.7346      1.0000      0.3877      0.9500      0.5000      0.9500      0.5000      0.0100           0
DSOLMap_942     C                  2000.0000      0.0000    301.6450    628.7346      1.0000      3.7081      0.9500      0.5000      0.9500      0.5000      0.0100           0
DSOLMap_786     C                  2000.0000      0.0000    263.4500    637.9336      1.0000      0.7441      0.9500      0.5000      0.9500      0.5000      0.0100           0
DSOLMap_942     C                  2000.0000      0.0000    301.6450    628.7346      1.0000      0.4796      0.9500      0.5000      0.9500      0.5000      0.0100           0
DSOLMap_786     C                  2000.0000      0.0000    263.4500    637.9336      1.0000      0.1631      0.9500      0.5000      0.9500      0.5000      0.0100           0
DSOLMap_942     C                  2000.0000      0.0000    301.6450    628.7346      1.0000      6.0122      0.9500      0.5000      0.9500      0.5000      0.0100           0
DSOLMap_942     C                  2000.0000      0.0000    301.6450    628.7346      1.0000     13.1262      0.9500      0.5000      0.9500      0.5000      0.0100           0
DSOLMap_786     C                  2000.0000      0.0000    263.4500    637.9336      1.0000      0.6215      0.9500      0.5000      0.9500      0.5000      0.0100           0
DSOLMap_786     C                  2000.0000      0.0000    263.4500    637.9336      1.0000      5.1488      0.9500      0.5000      0.9500      0.5000      0.0100           0
DSOLMap_786     C                  2000.0000      0.0000    263.4500    637.9336      1.0000      1.3798      0.9500      0.5000      0.9500      0.5000      0.0100           0
DSOLMap_786     C                  2000.0000      0.0000    263.4500    637.9336      1.0000     11.2909      0.9500      0.5000      0.9500      0.5000      0.0100           0
DSOLMap_942     C                  2000.0000      0.0000    301.6450    628.7346      1.0000      0.2353      0.9500      0.5000      0.9500      0.5000      0.0100           0
DSOLMap_942     C                  2000.0000      0.0000    301.6450    628.7346      1.0000      4.4436      0.9500      0.5000      0.9500      0.5000      0.0100           0
DSOLMap_786     C                  2000.0000      0.0000    263.4500    637.9336      1.0000      0.3560      0.9500      0.5000      0.9500      0.5000      0.0100           0
DSOLMap_786     C                  2000.0000      0.0000    263.4500    637.9336      1.0000      4.8707      0.9500      0.5000      0.9500      0.5000      0.0100           0
DSOLMap_786     C                  2000.0000      0.0000    263.4500    637.9336      1.0000      1.2650      0.9500      0.5000      0.9500      0.5000      0.0100           0
DSOLMap_785     C                  2000.0000      0.0000    188.8390    605.6492      1.0000      0.3621      0.9500      0.5000      0.9500      0.5000      0.0100           0
DSOLMap_785     C                  2000.0000      0.0000    188.8390    605.6492      1.0000      5.4125      0.9500      0.5000      0.9500      0.5000      0.0100           0
DSOLMap_942     C                  2000.0000      0.0000    301.6450    628.7346      1.0000      0.4989      0.9500      0.5000      0.9500      0.5000      0.0100           0
DSOLMap_942     C                  2000.0000      0.0000    301.6450    628.7346      1.0000      5.6647      0.9500      0.5000      0.9500      0.5000      0.0100           0
DSOLMap_942     C                  2000.0000      0.0000    301.6450    628.7346      1.0000     13.4173      0.9500      0.5000      0.9500      0.5000      0.0100           0
DSOLMap_942     C                  2000.0000      0.0000    301.6450    628.7346      1.0000      1.1851      0.9500      0.5000      0.9500      0.5000      0.0100           0
DSOLMap_785     C                  2000.0000      0.0000    188.8390    605.6492      1.0000      1.2443      0.9500      0.5000      0.9500      0.5000      0.0100           0
DSOLMap_785     C                  2000.0000      0.0000    188.8390    605.6492      1.0000      3.8188      0.9500      0.5000      0.9500      0.5000      0.0100           0
DSOLMap_785     C                  2000.0000      0.0000    188.8390    605.6492      1.0000      0.4783      0.9500      0.5000      0.9500      0.5000      0.0100           0
DSOLMap_786     C                  2000.0000      0.0000    263.4500    637.9336      1.0000      1.3192      0.9500      0.5000      0.9500      0.5000      0.0100           0
DSOLMap_786     C                  2000.0000      0.0000    263.4500    637.9336      1.0000      3.4742      0.9500      0.5000      0.9500      0.5000      0.0100           0
DSOLMap_786     C                  2000.0000      0.0000    263.4500    637.9336      1.0000      0.6839      0.9500      0.5000      0.9500      0.5000      0.0100           0
DSOLMap_942     C                  2000.0000      0.0000    301.6450    628.7346      1.0000      1.3993      0.9500      0.5000      0.9500      0.5000      0.0100           0
DSOLMap_942     C                  2000.0000      0.0000    301.6450    628.7346      1.0000      0.5990      0.9500      0.5000      0.9500      0.5000      0.0100           0
DSOLMap_942     C                  2000.0000      0.0000    301.6450    628.7346      1.0000      5.3256      0.9500      0.5000      0.9500      0.5000      0.0100           0
DSOLMap_942     C                  2000.0000      0.0000    301.6450    628.7346      1.0000     15.0802      0.9500      0.5000      0.9500      0.5000      0.0100           0
DSOLMap_786     C                  2000.0000      0.0000    263.4500    637.9336      1.0000     12.5756      0.9500      0.5000      0.9500      0.5000      0.0100           0
DSOLMap_786     C                  2000.0000      0.0000    263.4500    637.9336      1.0000      5.5362      0.9500      0.5000      0.9500      0.5000      0.0100           0
DSOLMap_786     C                  2000.0000      0.0000    263.4500    637.9336      1.0000      1.3229      0.9500      0.5000      0.9500      0.5000      0.0100           0
DSOLMap_786     C                  2000.0000      0.0000    263.4500    637.9336      1.0000      0.5605      0.9500      0.5000      0.9500      0.5000      0.0100           0
DSOLMap_785     C                  2000.0000      0.0000    188.8390    605.6492      1.0000      5.1485      0.9500      0.5000      0.9500      0.5000      0.0100           0
DSOLMap_785     C                  2000.0000      0.0000    188.8390    605.6492      1.0000      1.3632      0.9500      0.5000      0.9500      0.5000      0.0100           0
DSOLMap_785     C                  2000.0000      0.0000    188.8390    605.6492      1.0000      0.5937      0.9500      0.5000      0.9500      0.5000      0.0100           0
DSOLMap_786     C                  2000.0000      0.0000    263.4500    637.9336      1.0000      1.2750      0.9500      0.5000      0.9500      0.5000      0.0100           0
DSOLMap_786     C                  2000.0000      0.0000    263.4500    637.9336      1.0000      4.3339      0.9500      0.5000      0.9500      0.5000      0.0100           0
DSOLMap_786     C                  2000.0000      0.0000    263.4500    637.9336      1.0000      0.6841      0.9500      0.5000      0.9500      0.5000      0.0100           0
DSOLMap_942     C                  2000.0000      0.0000    301.6450    628.7346      1.0000      0.5267      0.9500      0.5000      0.9500      0.5000      0.0100           0
DSOLMap_942     C                  2000.0000      0.0000    301.6450    628.7346      1.0000      1.4172      0.9500      0.5000      0.9500      0.5000      0.0100           0
DSOLMap_942     C                  2000.0000      0.0000    301.6450    628.7346      1.0000      3.6627      0.9500      0.5000      0.9500      0.5000      0.0100           0
DSOLMap_785     C                  2000.0000      0.0000    188.8390    605.6492      1.0000      0.3962      0.9500      0.5000      0.9500      0.5000      0.0100           0
DSOLMap_1413    C                  2000.0000      0.0000    386.4500    795.2902      1.0000      6.0320      0.9500      0.5000      0.9500      0.5000      0.0100           0
DSOLMap_1413    C                  2000.0000      0.0000    386.4500    795.2902      1.0000     14.6672      0.9500      0.5000      0.9500      0.5000      0.0100           0
DSOLMap_942     C                  2000.0000      0.0000    301.6450    628.7346      1.0000      5.6821      0.9500      0.5000      0.9500      0.5000      0.0100           0
DSOLMap_942     C                  2000.0000      0.0000    301.6450    628.7346      1.0000     16.9480      0.9500      0.5000      0.9500      0.5000      0.0100           0
DSOLMap_942     C                  2000.0000      0.0000    301.6450    628.7346      1.0000      5.8208      0.9500      0.5000      0.9500      0.5000      0.0100           0
DSOLMap_942     C                  2000.0000      0.0000    301.6450    628.7346      1.0000     15.8709      0.9500      0.5000      0.9500      0.5000      0.0100           0
DSOLMap_942     C                  2000.0000      0.0000    301.6450    628.7346      1.0000      5.2857      0.9500      0.5000      0.9500      0.5000      0.0100           0
DSOLMap_942     C                  2000.0000      0.0000    301.6450    628.7346      1.0000     13.8585      0.9500      0.5000      0.9500      0.5000      0.0100           0
DSOLMap_786     C                  2000.0000      0.0000    263.4500    637.9336      1.0000      0.3484      0.9500      0.5000      0.9500      0.5000      0.0100           0
DSOLMap_786     C                  2000.0000      0.0000    263.4500    637.9336      1.0000      4.7536      0.9500      0.5000      0.9500      0.5000      0.0100           0
DSOLMap_942     C                  2000.0000      0.0000    301.6450    628.7346      1.0000      0.2832      0.9500      0.5000      0.9500      0.5000      0.0100           0
DSOLMap_942     C                  2000.0000      0.0000    301.6450    628.7346      1.0000      4.6255      0.9500      0.5000      0.9500      0.5000      0.0100           0
DSOLMap_785     C                  2000.0000      0.0000    188.8390    605.6492      1.0000      0.4009      0.9500      0.5000      0.9500      0.5000      0.0100           0
DSOLMap_785     C                  2000.0000      0.0000    188.8390    605.6492      1.0000      1.2876      0.9500      0.5000      0.9500      0.5000      0.0100           0
DSOLMap_785     C                  2000.0000      0.0000    188.8390    605.6492      1.0000      4.2973      0.9500      0.5000      0.9500      0.5000      0.0100           0
DSOLMap_942     C                  2000.0000      0.0000    301.6450    628.7346      1.0000      5.7968      0.9500      0.5000      0.9500      0.5000      0.0100           0
DSOLMap_942     C                  2000.0000      0.0000    301.6450    628.7346      1.0000     12.7064      0.9500      0.5000      0.9500      0.5000      0.0100           0
DSOLMap_786     C                  2000.0000      0.0000    263.4500    637.9336      1.0000      0.4358      0.9500      0.5000      0.9500      0.5000      0.0100           0
DSOLMap_786     C                  2000.0000      0.0000    263.4500    637.9336      1.0000      5.1770      0.9500      0.5000      0.9500      0.5000      0.0100           0
DSOLMap_785     C                  2000.0000      0.0000    188.8390    605.6492      1.0000      4.4408      0.9500      0.5000      0.9500      0.5000      0.0100           0
DSOLMap_785     C                  2000.0000      0.0000    188.8390    605.6492      1.0000      0.4870      0.9500      0.5000      0.9500      0.5000      0.0100           0
DSOLMap_785     C                  2000.0000      0.0000    188.8390    605.6492      1.0000      1.4836      0.9500      0.5000      0.9500      0.5000      0.0100           0
DSOLMap_786     C                  2000.0000      0.0000    263.4500    637.9336      1.0000      4.9981      0.9500      0.5000      0.9500      0.5000      0.0100           0
DSOLMap_786     C                  2000.0000      0.0000    263.4500    637.9336      1.0000      1.3714      0.9500      0.5000      0.9500      0.5000      0.0100           0
DSOLMap_942     C                  2000.0000      0.0000    301.6450    628.7346      1.0000     13.0941      0.9500      0.5000      0.9500      0.5000      0.0100           0
DSOLMap_942     C                  2000.0000      0.0000    301.6450    628.7346      1.0000      5.1603      0.9500      0.5000      0.9500      0.5000      0.0100           0
DSOLMap_942     C                  2000.0000      0.0000    301.6450    628.7346      1.0000      1.5083      0.9500      0.5000      0.9500      0.5000      0.0100           0
DSOLMap_798     C                  2000.0000      0.0000    264.6300    617.2902      1.0000     12.5481      0.9500      0.5000      0.9500      0.5000      0.0100           0
DSOLMap_798     C                  2000.0000      0.0000    264.6300    617.2902      1.0000      4.8473      0.9500      0.5000      0.9500      0.5000      0.0100           0
DSOLMap_798     C                  2000.0000      0.0000    264.6300    617.2902      1.0000      1.3755      0.9500      0.5000      0.9500      0.5000      0.0100           0
DSOLMap_785     C                  2000.0000      0.0000    188.8390    605.6492      1.0000      5.2382      0.9500      0.5000      0.9500      0.5000      0.0100           0
DSOLMap_785     C                  2000.0000      0.0000    188.8390    605.6492      1.0000     13.3722      0.9500      0.5000      0.9500      0.5000      0.0100           0
DSOLMap_786     C                  2000.0000      0.0000    263.4500    637.9336      1.0000     12.6329      0.9500      0.5000      0.9500      0.5000      0.0100           0
DSOLMap_786     C                  2000.0000      0.0000    263.4500    637.9336      1.0000      5.3921      0.9500      0.5000      0.9500      0.5000      0.0100           0
DSOLMap_786     C                  2000.0000      0.0000    263.4500    637.9336      1.0000      1.5023      0.9500      0.5000      0.9500      0.5000      0.0100           0
DSOLMap_942     C                  2000.0000      0.0000    301.6450    628.7346      1.0000      5.3520      0.9500      0.5000      0.9500      0.5000      0.0100           0
DSOLMap_942     C                  2000.0000      0.0000    301.6450    628.7346      1.0000      1.4232      0.9500      0.5000      0.9500      0.5000      0.0100           0
DSOLMap_942     C                  2000.0000      0.0000    301.6450    628.7346      1.0000     12.7703      0.9500      0.5000      0.9500      0.5000      0.0100           0
DSOLMap_785     C                  2000.0000      0.0000    188.8390    605.6492      1.0000      5.1655      0.9500      0.5000      0.9500      0.5000      0.0100           0
DSOLMap_785     C                  2000.0000      0.0000    188.8390    605.6492      1.0000     11.2302      0.9500      0.5000      0.9500      0.5000      0.0100           0
DSOLMap_786     C                  2000.0000      0.0000    263.4500    637.9336      1.0000      4.2683      0.9500      0.5000      0.9500      0.5000      0.0100           0
DSOLMap_786     C                  2000.0000      0.0000    263.4500    637.9336      1.0000      1.3602      0.9500      0.5000      0.9500      0.5000      0.0100           0
DSOLMap_786     C                  2000.0000      0.0000    263.4500    637.9336      1.0000      0.6849      0.9500      0.5000      0.9500      0.5000      0.0100           0
DSOLMap_785     C                  2000.0000      0.0000    188.8390    605.6492      1.0000      4.9883      0.9500      0.5000      0.9500      0.5000      0.0100           0
DSOLMap_785     C                  2000.0000      0.0000    188.8390    605.6492      1.0000      1.5653      0.9500      0.5000      0.9500      0.5000      0.0100           0
DSOLMap_785     C                  2000.0000      0.0000    188.8390    605.6492      1.0000     13.9431      0.9500      0.5000      0.9500      0.5000      0.0100           0
DSOLMap_942     C                  2000.0000      0.0000    301.6450    628.7346      1.0000      5.0688      0.9500      0.5000      0.9500      0.5000      0.0100           0
DSOLMap_942     C                  2000.0000      0.0000    301.6450    628.7346      1.0000     13.3329      0.9500      0.5000      0.9500      0.5000      0.0100           0
DSOLMap_942     C                  2000.0000      0.0000    301.6450    628.7346      1.0000      1.4401      0.9500      0.5000      0.9500      0.5000      0.0100           0
DSOLMap_942     C                  2000.0000      0.0000    301.6450    628.7346      1.0000      6.1189      0.9500      0.5000      0.9500      0.5000      0.0100           0
DSOLMap_942     C                  2000.0000      0.0000    301.6450    628.7346      1.0000     11.3595      0.9500      0.5000      0.9500      0.5000      0.0100           0
DSOLMap_942     C                  2000.0000      0.0000    301.6450    628.7346      1.0000     15.8090      0.9500      0.5000      0.9500      0.5000      0.0100           0
DSOLMap_942     C                  2000.0000      0.0000    301.6450    628.7346      1.0000      4.9920      0.9500      0.5000      0.9500      0.5000      0.0100           0
DSOLMap_942     C                  2000.0000      0.0000    301.6450    628.7346      1.0000     16.7796      0.9500      0.5000      0.9500      0.5000      0.0100           0
[...]
DSOLMap_786     C                  2000.0000      0.0000    263.4500    637.9336      1.0000      1.4127      0.9500      0.5000      0.9500      0.5000      0.0100           0
DSOLMap_786     C                  2000.0000      0.0000    263.4500    637.9336      1.0000      3.9743      0.9500      0.5000      0.9500      0.5000      0.0100           0
DSOLMap_786     C                  2000.0000      0.0000    263.4500    637.9336      1.0000      1.4235      0.9500      0.5000      0.9500      0.5000      0.0100           0
DSOLMap_786     C                  2000.0000      0.0000    263.4500    637.9336      1.0000      0.4783      0.9500      0.5000      0.9500      0.5000      0.0100           0
DSOLMap_786     C                  2000.0000      0.0000    263.4500    637.9336      1.0000      3.8932      0.9500      0.5000      0.9500      0.5000      0.0100           0
DSOLMap_785     C                  2000.0000      0.0000    188.8390    605.6492      1.0000      0.3784      0.9500      0.5000      0.9500      0.5000      0.0100           0
DSOLMap_785     C                  2000.0000      0.0000    188.8390    605.6492      1.0000      1.3181      0.9500      0.5000      0.9500      0.5000      0.0100           0
DSOLMap_942     C                  2000.0000      0.0000    301.6450    628.7346      1.0000      1.6030      0.9500      0.5000      0.9500      0.5000      0.0100           0
DSOLMap_942     C                  2000.0000      0.0000    301.6450    628.7346      1.0000      4.1487      0.9500      0.5000      0.9500      0.5000      0.0100           0
DSOLMap_942     C                  2000.0000      0.0000    301.6450    628.7346      1.0000     12.8092      0.9500      0.5000      0.9500      0.5000      0.0100           0
DSOLMap_942     C                  2000.0000      0.0000    301.6450    628.7346      1.0000      5.7801      0.9500      0.5000      0.9500      0.5000      0.0100           0
DSOLMap_786     C                  2000.0000      0.0000    263.4500    637.9336      1.0000      5.1687      0.9500      0.5000      0.9500      0.5000      0.0100           0
DSOLMap_786     C                  2000.0000      0.0000    263.4500    637.9336      1.0000     11.5052      0.9500      0.5000      0.9500      0.5000      0.0100           0
DSOLMap_786     C                  2000.0000      0.0000    263.4500    637.9336      1.0000      1.4460      0.9500      0.5000      0.9500      0.5000      0.0100           0
DSOLMap_942     C                  2000.0000      0.0000    301.6450    628.7346      1.0000      5.5161      0.9500      0.5000      0.9500      0.5000      0.0100           0
DSOLMap_942     C                  2000.0000      0.0000    301.6450    628.7346      1.0000     12.7955      0.9500      0.5000      0.9500      0.5000      0.0100           0
DSOLMap_942     C                  2000.0000      0.0000    301.6450    628.7346      1.0000      1.4303      0.9500      0.5000      0.9500      0.5000      0.0100           0
DSOLMap_786     C                  2000.0000      0.0000    263.4500    637.9336      1.0000     12.0444      0.9500      0.5000      0.9500      0.5000      0.0100           0
DSOLMap_786     C                  2000.0000      0.0000    263.4500    637.9336      1.0000      6.5955      0.9500      0.5000      0.9500      0.5000      0.0100           0
DSOLMap_942     C                  2000.0000      0.0000    301.6450    628.7346      1.0000      5.6725      0.9500      0.5000      0.9500      0.5000      0.0100           0
DSOLMap_942     C                  2000.0000      0.0000    301.6450    628.7346      1.0000     12.8616      0.9500      0.5000      0.9500      0.5000      0.0100           0
DSOLMap_942     C                  2000.0000      0.0000    301.6450    628.7346      1.0000      5.3008      0.9500      0.5000      0.9500      0.5000      0.0100           0
DSOLMap_942     C                  2000.0000      0.0000    301.6450    628.7346      1.0000      1.5324      0.9500      0.5000      0.9500      0.5000      0.0100           0
DSOLMap_942     C                  2000.0000      0.0000    301.6450    628.7346      1.0000     10.9867      0.9500      0.5000      0.9500      0.5000      0.0100           0
DSOLMap_785     C                  2000.0000      0.0000    188.8390    605.6492      1.0000      0.5804      0.9500      0.5000      0.9500      0.5000      0.0100           0
DSOLMap_785     C                  2000.0000      0.0000    188.8390    605.6492      1.0000      3.5118      0.9500      0.5000      0.9500      0.5000      0.0100           0
DSOLMap_785     C                  2000.0000      0.0000    188.8390    605.6492      1.0000      1.1886      0.9500      0.5000      0.9500      0.5000      0.0100           0
DSOLMap_786     C                  2000.0000      0.0000    263.4500    637.9336      1.0000      0.6526      0.9500      0.5000      0.9500      0.5000      0.0100           0
DSOLMap_786     C                  2000.0000      0.0000    263.4500    637.9336      1.0000      4.2713      0.9500      0.5000      0.9500      0.5000      0.0100           0
DSOLMap_786     C                  2000.0000      0.0000    263.4500    637.9336      1.0000      1.2733      0.9500      0.5000      0.9500      0.5000      0.0100           0
DSOLMap_942     C                  2000.0000      0.0000    301.6450    628.7346      1.0000      3.9298      0.9500      0.5000      0.9500      0.5000      0.0100           0
DSOLMap_942     C                  2000.0000      0.0000    301.6450    628.7346      1.0000      1.3757      0.9500      0.5000      0.9500      0.5000      0.0100           0
DSOLMap_786     C                  2000.0000      0.0000    263.4500    637.9336      1.0000      4.3565      0.9500      0.5000      0.9500      0.5000      0.0100           0
DSOLMap_786     C                  2000.0000      0.0000    263.4500    637.9336      1.0000      0.4047      0.9500      0.5000      0.9500      0.5000      0.0100           0
DSOLMap_785     C                  2000.0000      0.0000    188.8390    605.6492      1.0000      0.4156      0.9500      0.5000      0.9500      0.5000      0.0100           0
DSOLMap_785     C                  2000.0000      0.0000    188.8390    605.6492      1.0000      4.4910      0.9500      0.5000      0.9500      0.5000      0.0100           0
DSOLMap_942     C                  2000.0000      0.0000    301.6450    628.7346      1.0000     14.2023      0.9500      0.5000      0.9500      0.5000      0.0100           0
DSOLMap_942     C                  2000.0000      0.0000    301.6450    628.7346      1.0000      5.8233      0.9500      0.5000      0.9500      0.5000      0.0100           0
DSOLMap_942     C                  2000.0000      0.0000    301.6450    628.7346      1.0000      5.1061      0.9500      0.5000      0.9500      0.5000      0.0100           0
DSOLMap_942     C                  2000.0000      0.0000    301.6450    628.7346      1.0000     13.0337      0.9500      0.5000      0.9500      0.5000      0.0100           0
DSOLMap_942     C                  2000.0000      0.0000    301.6450    628.7346      1.0000      0.7247      0.9500      0.5000      0.9500      0.5000      0.0100           0
DSOLMap_786     C                  2000.0000      0.0000    263.4500    637.9336      1.0000      4.3500      0.9500      0.5000      0.9500      0.5000      0.0100           0
DSOLMap_786     C                  2000.0000      0.0000    263.4500    637.9336      1.0000      1.3575      0.9500      0.5000      0.9500      0.5000      0.0100           0
DSOLMap_786     C                  2000.0000      0.0000    263.4500    637.9336      1.0000      0.4298      0.9500      0.5000      0.9500      0.5000      0.0100           0
DSOLMap_942     C                  2000.0000      0.0000    301.6450    628.7346      1.0000     14.1877      0.9500      0.5000      0.9500      0.5000      0.0100           0
DSOLMap_942     C                  2000.0000      0.0000    301.6450    628.7346      1.0000      5.4215      0.9500      0.5000      0.9500      0.5000      0.0100           0
DSOLMap_942     C                  2000.0000      0.0000    301.6450    628.7346      1.0000      1.3192      0.9500      0.5000      0.9500      0.5000      0.0100           0
DSOLMap_786     C                  2000.0000      0.0000    263.4500    637.9336      1.0000      5.2207      0.9500      0.5000      0.9500      0.5000      0.0100           0
DSOLMap_786     C                  2000.0000      0.0000    263.4500    637.9336      1.0000      0.6729      0.9500      0.5000      0.9500      0.5000      0.0100           0
DSOLMap_786     C                  2000.0000      0.0000    263.4500    637.9336      1.0000      1.2973      0.9500      0.5000      0.9500      0.5000      0.0100           0
DSOLMap_786     C                  2000.0000      0.0000    263.4500    637.9336      1.0000     13.9285      0.9500      0.5000      0.9500      0.5000      0.0100           0
DSOLMap_786     C                  2000.0000      0.0000    263.4500    637.9336      1.0000     16.3141      0.9500      0.5000      0.9500      0.5000      0.0100           0
DSOLMap_786     C                  2000.0000      0.0000    263.4500    637.9336      1.0000      5.7021      0.9500      0.5000      0.9500      0.5000      0.0100           0
DSOLMap_942     C                  2000.0000      0.0000    301.6450    628.7346      1.0000      6.7356      0.9500      0.5000      0.9500      0.5000      0.0100           0
DSOLMap_942     C                  2000.0000      0.0000    301.6450    628.7346      1.0000     14.0710      0.9500      0.5000      0.9500      0.5000      0.0100           0
DSOLMap_785     C                  2000.0000      0.0000    188.8390    605.6492      1.0000      6.4334      0.9500      0.5000      0.9500      0.5000      0.0100           0
DSOLMap_785     C                  2000.0000      0.0000    188.8390    605.6492      1.0000     12.3908      0.9500      0.5000      0.9500      0.5000      0.0100           0
DSOLMap_786     C                  2000.0000      0.0000    263.4500    637.9336      1.0000     13.9589      0.9500      0.5000      0.9500      0.5000      0.0100           0
DSOLMap_786     C                  2000.0000      0.0000    263.4500    637.9336      1.0000      6.5088      0.9500      0.5000      0.9500      0.5000      0.0100           0
DSOLMap_942     C                  2000.0000      0.0000    301.6450    628.7346      1.0000     14.5545      0.9500      0.5000      0.9500      0.5000      0.0100           0
DSOLMap_942     C                  2000.0000      0.0000    301.6450    628.7346      1.0000      6.5805      0.9500      0.5000      0.9500      0.5000      0.0100           0
DSOLMap_785     C                  2000.0000      0.0000    188.8390    605.6492      1.0000     12.4964      0.9500      0.5000      0.9500      0.5000      0.0100           0
DSOLMap_785     C                  2000.0000      0.0000    188.8390    605.6492      1.0000      6.7179      0.9500      0.5000      0.9500      0.5000      0.0100           0
DSOLMap_942     C                  2000.0000      0.0000    301.6450    628.7346      1.0000      6.2912      0.9500      0.5000      0.9500      0.5000      0.0100           0
DSOLMap_942     C                  2000.0000      0.0000    301.6450    628.7346      1.0000     12.5313      0.9500      0.5000      0.9500      0.5000      0.0100           0
DSOLMap_942     C                  2000.0000      0.0000    301.6450    628.7346      1.0000     12.8812      0.9500      0.5000      0.9500      0.5000      0.0100           0
DSOLMap_942     C                  2000.0000      0.0000    301.6450    628.7346      1.0000      5.4837      0.9500      0.5000      0.9500      0.5000      0.0100           0
DSOLMap_942     C                  2000.0000      0.0000    301.6450    628.7346      1.0000      1.3906      0.9500      0.5000      0.9500      0.5000      0.0100           0
DSOLMap_786     C                  2000.0000      0.0000    263.4500    637.9336      1.0000      4.3128      0.9500      0.5000      0.9500      0.5000      0.0100           0
DSOLMap_786     C                  2000.0000      0.0000    263.4500    637.9336      1.0000      1.3605      0.9500      0.5000      0.9500      0.5000      0.0100           0
DSOLMap_786     C                  2000.0000      0.0000    263.4500    637.9336      1.0000      0.5777      0.9500      0.5000      0.9500      0.5000      0.0100           0
DSOLMap_942     C                  2000.0000      0.0000    301.6450    628.7346      1.0000      4.8734      0.9500      0.5000      0.9500      0.5000      0.0100           0
DSOLMap_942     C                  2000.0000      0.0000    301.6450    628.7346      1.0000      1.3355      0.9500      0.5000      0.9500      0.5000      0.0100           0
DSOLMap_942     C                  2000.0000      0.0000    301.6450    628.7346      1.0000      0.6742      0.9500      0.5000      0.9500      0.5000      0.0100           0
DSOLMap_942     C                  2000.0000      0.0000    301.6450    628.7346      1.0000      5.9855      0.9500      0.5000      0.9500      0.5000      0.0100           0
DSOLMap_942     C                  2000.0000      0.0000    301.6450    628.7346      1.0000     12.6304      0.9500      0.5000      0.9500      0.5000      0.0100           0
DSOLMap_942     C                  2000.0000      0.0000    301.6450    628.7346      1.0000      6.1587      0.9500      0.5000      0.9500      0.5000      0.0100           0
DSOLMap_942     C                  2000.0000      0.0000    301.6450    628.7346      1.0000     12.9380      0.9500      0.5000      0.9500      0.5000      0.0100           0
DSOLMap_942     C                  2000.0000      0.0000    301.6450    628.7346      1.0000      6.0812      0.9500      0.5000      0.9500      0.5000      0.0100           0
DSOLMap_942     C                  2000.0000      0.0000    301.6450    628.7346      1.0000     12.7008      0.9500      0.5000      0.9500      0.5000      0.0100           0
DSOLMap_942     C                  2000.0000      0.0000    301.6450    628.7346      1.0000      5.6122      0.9500      0.5000      0.9500      0.5000      0.0100           0
DSOLMap_942     C                  2000.0000      0.0000    301.6450    628.7346      1.0000     12.3902      0.9500      0.5000      0.9500      0.5000      0.0100           0
DSOLMap_942     C                  2000.0000      0.0000    301.6450    628.7346      1.0000      5.5834      0.9500      0.5000      0.9500      0.5000      0.0100           0
DSOLMap_942     C                  2000.0000      0.0000    301.6450    628.7346      1.0000     13.0798      0.9500      0.5000      0.9500      0.5000      0.0100           0
DSOLMap_786     C                  2000.0000      0.0000    263.4500    637.9336      1.0000      5.3751      0.9500      0.5000      0.9500      0.5000      0.0100           0
DSOLMap_786     C                  2000.0000      0.0000    263.4500    637.9336      1.0000     13.1798      0.9500      0.5000      0.9500      0.5000      0.0100           0
DSOLMap_785     C                  2000.0000      0.0000    188.8390    605.6492      1.0000      5.3309      0.9500      0.5000      0.9500      0.5000      0.0100           0
DSOLMap_785     C                  2000.0000      0.0000    188.8390    605.6492      1.0000     12.3773      0.9500      0.5000      0.9500      0.5000      0.0100           0
DSOLMap_942     C                  2000.0000      0.0000    301.6450    628.7346      1.0000      5.8509      0.9500      0.5000      0.9500      0.5000      0.0100           0
DSOLMap_942     C                  2000.0000      0.0000    301.6450    628.7346      1.0000     11.7456      0.9500      0.5000      0.9500      0.5000      0.0100           0
DSOLMap_785     C                  2000.0000      0.0000    188.8390    605.6492      1.0000      5.8736      0.9500      0.5000      0.9500      0.5000      0.0100           0
DSOLMap_785     C                  2000.0000      0.0000    188.8390    605.6492      1.0000     11.4964      0.9500      0.5000      0.9500      0.5000      0.0100           0
DSOLMap_786     C                  2000.0000      0.0000    263.4500    637.9336      1.0000     11.3124      0.9500      0.5000      0.9500      0.5000      0.0100           0
DSOLMap_786     C                  2000.0000      0.0000    263.4500    637.9336      1.0000      5.6011      0.9500      0.5000      0.9500      0.5000      0.0100           0
DSOLMap_785     C                  2000.0000      0.0000    188.8390    605.6492      1.0000     13.6811      0.9500      0.5000      0.9500      0.5000      0.0100           0
DSOLMap_785     C                  2000.0000      0.0000    188.8390    605.6492      1.0000      5.9549      0.9500      0.5000      0.9500      0.5000      0.0100           0
DSOLMap_942     C                  2000.0000      0.0000    301.6450    628.7346      1.0000      6.2187      0.9500      0.5000      0.9500      0.5000      0.0100           0
DSOLMap_942     C                  2000.0000      0.0000    301.6450    628.7346      1.0000     15.2655      0.9500      0.5000      0.9500      0.5000      0.0100           0
DSOLMap_786     C                  2000.0000      0.0000    263.4500    637.9336      1.0000     13.4315      0.9500      0.5000      0.9500      0.5000      0.0100           0
DSOLMap_786     C                  2000.0000      0.0000    263.4500    637.9336      1.0000      5.5626      0.9500      0.5000      0.9500      0.5000      0.0100           0
DSOLMap_785     C                  2000.0000      0.0000    188.8390    605.6492      1.0000     12.1649      0.9500      0.5000      0.9500      0.5000      0.0100           0
DSOLMap_785     C                  2000.0000      0.0000    188.8390    605.6492      1.0000      5.6632      0.9500      0.5000      0.9500      0.5000      0.0100           0
DSOLMap_942     C                  2000.0000      0.0000    301.6450    628.7346      1.0000      6.4952      0.9500      0.5000      0.9500      0.5000      0.0100           0
DSOLMap_942     C                  2000.0000      0.0000    301.6450    628.7346      1.0000     14.3668      0.9500      0.5000      0.9500      0.5000      0.0100           0
DSOLMap_942     C                  2000.0000      0.0000    301.6450    628.7346      1.0000      6.1848      0.9500      0.5000      0.9500      0.5000      0.0100           0
DSOLMap_942     C                  2000.0000      0.0000    301.6450    628.7346      1.0000     13.5697      0.9500      0.5000      0.9500      0.5000      0.0100           0
DSOLMap_785     C                  2000.0000      0.0000    188.8390    605.6492      1.0000      5.7557      0.9500      0.5000      0.9500      0.5000      0.0100           0
DSOLMap_785     C                  2000.0000      0.0000    188.8390    605.6492      1.0000     12.8288      0.9500      0.5000      0.9500      0.5000      0.0100           0
DSOLMap_942     C                  2000.0000      0.0000    301.6450    628.7346      1.0000     13.3100      0.9500      0.5000      0.9500      0.5000      0.0100           0
DSOLMap_942     C                  2000.0000      0.0000    301.6450    628.7346      1.0000      6.1240      0.9500      0.5000      0.9500      0.5000      0.0100           0
DSOLMap_785     C                  2000.0000      0.0000    188.8390    605.6492      1.0000      5.9104      0.9500      0.5000      0.9500      0.5000      0.0100           0
DSOLMap_785     C                  2000.0000      0.0000    188.8390    605.6492      1.0000     13.3468      0.9500      0.5000      0.9500      0.5000      0.0100           0
