                   SWAT+               
             Revision 60.5.4          
      Soil & Water Assessment Tool    
               PC Version             
    Program reading . . . executing


  Date of Sim  11/13/2024 Time   9:10:40
 reading from precipitation file         Time   9:10:40
 reading from temperature file           Time   9:10:40
 reading from solar radiation file       Time   9:10:40
 reading from relative humidity file     Time   9:10:40
 reading from wind file                  Time   9:10:40
 reading from wgn file                   Time   9:10:40
 reading from wx station file            Time   9:10:40
  Original Simulation        1   1  1981 Yr    1 of    2 Time   9:10:40
