                   SWAT+               
             Revision 60.5.4          
      Soil & Water Assessment Tool    
               PC Version             
    Program reading . . . executing


  Date of Sim  12/11/2024 Time  22: 0:55
 reading from precipitation file         Time  22: 0:55
 reading from temperature file           Time  22: 0:55
 reading from solar radiation file       Time  22: 0:55
 reading from relative humidity file     Time  22: 0:55
 reading from wind file                  Time  22: 0:55
 reading from wgn file                   Time  22: 0:55
 reading from wx station file            Time  22: 0:55
  Original Simulation        1   1  1981 Yr    1 of    3 Time  22: 0:56
