 lilj_1sub                 SWAT+ Nov 30 2021    MODULAR Rev 2020.60.5.4                                   
                                        zmx       usle_k       sumfc       sumul      usle_p     usle_ls        esco        epco     cn3_swf       perco     latq_co   tiledrain 
 sname           hydgrp                 (mm)                    (mm)        (mm)                                                                                     0=notile;1=tile;
LREW06          B                  1650.0000      0.0000    192.2000    377.4139      1.0000      0.4009      0.9500      1.0000      0.9500      0.9000      0.0100           0
LREW06          B                  1650.0000      0.0000    192.2000    377.4139      1.0000      0.4289      0.9500      1.0000      0.9500      0.9000      0.0100           0
LREW10          D                  1780.0000      0.0000    159.8000    515.2219      1.0000      0.4188      0.9500      1.0000      0.9500      0.0500      0.0100           0
LREW09          C                  1650.0000      0.0000    136.4000    520.2086      1.0000      0.3044      0.9500      1.0000      0.9500      0.5000      0.0100           0
LREW06          B                  1650.0000      0.0000    192.2000    377.4139      1.0000      0.6140      0.9500      1.0000      0.9500      0.9000      0.0100           0
LREW03          B                  1520.0000      0.0000    173.2000    436.5842      1.0000      0.5294      0.9500      1.0000      0.9500      0.9000      0.0100           0
LREW10          D                  1780.0000      0.0000    159.8000    515.2219      1.0000      0.4201      0.9500      1.0000      0.9500      0.0500      0.0100           0
LREW05          B                  1650.0000      0.0000    167.6000    496.6032      1.0000      0.6693      0.9500      1.0000      0.9500      0.9000      0.0100           0
LREW08          C                  1650.0000      0.0000    203.9000    431.5414      1.0000      0.6457      0.9500      1.0000      0.9500      0.5000      0.0100           0
LREW03          B                  1520.0000      0.0000    173.2000    436.5842      1.0000      0.4889      0.9500      1.0000      0.9500      0.9000      0.0100           0
LREW06          B                  1650.0000      0.0000    192.2000    377.4139      1.0000      0.4641      0.9500      1.0000      0.9500      0.9000      0.0100           0
LREW08          C                  1650.0000      0.0000    203.9000    431.5414      1.0000      0.7006      0.9500      1.0000      0.9500      0.5000      0.0100           0
LREW05          B                  1650.0000      0.0000    167.6000    496.6032      1.0000      0.6801      0.9500      1.0000      0.9500      0.9000      0.0100           0
LREW06          B                  1650.0000      0.0000    192.2000    377.4139      1.0000      0.5244      0.9500      1.0000      0.9500      0.9000      0.0100           0
LREW10          D                  1780.0000      0.0000    159.8000    515.2219      1.0000      0.4025      0.9500      1.0000      0.9500      0.0500      0.0100           0
LREW05          B                  1650.0000      0.0000    167.6000    496.6032      1.0000      0.6872      0.9500      1.0000      0.9500      0.9000      0.0100           0
LREW08          C                  1650.0000      0.0000    203.9000    431.5414      1.0000      0.7099      0.9500      1.0000      0.9500      0.5000      0.0100           0
LREW02          A                  2160.0000      0.0000    138.4000    865.7950      1.0000      0.6309      0.9500      1.0000      0.9500      0.9000      0.0100           0
LREW10          D                  1780.0000      0.0000    159.8000    515.2219      1.0000      0.3927      0.9500      1.0000      0.9500      0.0500      0.0100           0
LREW06          B                  1650.0000      0.0000    192.2000    377.4139      1.0000      0.5662      0.9500      1.0000      0.9500      0.9000      0.0100           0
LREW08          C                  1650.0000      0.0000    203.9000    431.5414      1.0000      0.6133      0.9500      1.0000      0.9500      0.5000      0.0100           0
LREW05          B                  1650.0000      0.0000    167.6000    496.6032      1.0000      0.5439      0.9500      1.0000      0.9500      0.9000      0.0100           0
LREW04          B                  1930.0000      0.0000    285.9000    402.8983      1.0000      0.2595      0.9500      1.0000      0.9500      0.9000      0.0100           0
LREW06          B                  1650.0000      0.0000    192.2000    377.4139      1.0000      0.4564      0.9500      1.0000      0.9500      0.9000      0.0100           0
LREW10          D                  1780.0000      0.0000    159.8000    515.2219      1.0000      0.4314      0.9500      1.0000      0.9500      0.0500      0.0100           0
LREW08          C                  1650.0000      0.0000    203.9000    431.5414      1.0000      0.5405      0.9500      1.0000      0.9500      0.5000      0.0100           0
LREW03          B                  1520.0000      0.0000    173.2000    436.5842      1.0000      0.4218      0.9500      1.0000      0.9500      0.9000      0.0100           0
LREW06          B                  1650.0000      0.0000    192.2000    377.4139      1.0000      0.4356      0.9500      1.0000      0.9500      0.9000      0.0100           0
LREW08          C                  1650.0000      0.0000    203.9000    431.5414      1.0000      0.6464      0.9500      1.0000      0.9500      0.5000      0.0100           0
LREW10          D                  1780.0000      0.0000    159.8000    515.2219      1.0000      0.5907      0.9500      1.0000      0.9500      0.0500      0.0100           0
LREW06          B                  1650.0000      0.0000    192.2000    377.4139      1.0000      0.6313      0.9500      1.0000      0.9500      0.9000      0.0100           0
LREW10          D                  1780.0000      0.0000    159.8000    515.2219      1.0000      0.4284      0.9500      1.0000      0.9500      0.0500      0.0100           0
LREW12          D                    25.4000      0.0000      0.1270     12.8126      1.0000      0.3727      0.9500      1.0000      0.9500      0.0500      0.0100           0
LREW06          B                  1650.0000      0.0000    192.2000    377.4139      1.0000      0.5819      0.9500      1.0000      0.9500      0.9000      0.0100           0
LREW10          D                  1780.0000      0.0000    159.8000    515.2219      1.0000      0.5118      0.9500      1.0000      0.9500      0.0500      0.0100           0
LREW05          B                  1650.0000      0.0000    167.6000    496.6032      1.0000      0.5842      0.9500      1.0000      0.9500      0.9000      0.0100           0
LREW03          B                  1520.0000      0.0000    173.2000    436.5842      1.0000      0.4854      0.9500      1.0000      0.9500      0.9000      0.0100           0
LREW06          B                  1650.0000      0.0000    192.2000    377.4139      1.0000      0.3993      0.9500      1.0000      0.9500      0.9000      0.0100           0
LREW05          B                  1650.0000      0.0000    167.6000    496.6032      1.0000      0.3920      0.9500      1.0000      0.9500      0.9000      0.0100           0
LREW06          B                  1650.0000      0.0000    192.2000    377.4139      1.0000      0.4088      0.9500      1.0000      0.9500      0.9000      0.0100           0
LREW10          D                  1780.0000      0.0000    159.8000    515.2219      1.0000      0.5097      0.9500      1.0000      0.9500      0.0500      0.0100           0
LREW04          B                  1930.0000      0.0000    285.9000    402.8983      1.0000      0.3954      0.9500      1.0000      0.9500      0.9000      0.0100           0
LREW06          B                  1650.0000      0.0000    192.2000    377.4139      1.0000      0.5751      0.9500      1.0000      0.9500      0.9000      0.0100           0
LREW03          B                  1520.0000      0.0000    173.2000    436.5842      1.0000      0.7122      0.9500      1.0000      0.9500      0.9000      0.0100           0
LREW08          C                  1650.0000      0.0000    203.9000    431.5414      1.0000      0.9618      0.9500      1.0000      0.9500      0.5000      0.0100           0
LREW10          D                  1780.0000      0.0000    159.8000    515.2219      1.0000      0.5519      0.9500      1.0000      0.9500      0.0500      0.0100           0
LREW06          B                  1650.0000      0.0000    192.2000    377.4139      1.0000      0.3889      0.9500      1.0000      0.9500      0.9000      0.0100           0
LREW09          C                  1650.0000      0.0000    136.4000    520.2086      1.0000      0.3936      0.9500      1.0000      0.9500      0.5000      0.0100           0
LREW06          B                  1650.0000      0.0000    192.2000    377.4139      1.0000      0.6628      0.9500      1.0000      0.9500      0.9000      0.0100           0
