print.prt: written by SWAT+ editor v2.1.0 on 2022-07-22 17:46 for SWAT+ rev.60.5.4
nyskip      day_start  yrc_start  day_end   yrc_end   interval  
1            0           0           0          0          1          
aa_int_cnt  
0           
csvout        dbout         cdfout        
n             n             n             
soilout       mgtout        hydcon        fdcout        
n             y             n             n             
objects                  daily       monthly        yearly         avann  
basin_wb                     n             n             y             y  
basin_nb                     n             n             y             y  
basin_ls                     n             n             y             y  
basin_pw                     n             n             y             y  
basin_aqu                    n             n             y             y  
basin_res                    n             n             y             y  
basin_cha                    n             n             y             y  
basin_sd_cha                 n             n             y             y  
basin_psc                    n             n             y             y  
region_wb                    n             n             y             y  
region_nb                    n             n             y             y  
region_ls                    n             n             y             y  
region_pw                    n             n             y             y  
region_aqu                   n             n             y             y  
region_res                   n             n             y             y  
region_cha                   n             n             y             y  
region_sd_cha                n             n             y             y  
region_psc                   n             n             y             y  
lsunit_wb                    n             n             y             y  
lsunit_nb                    n             n             y             y  
lsunit_ls                    n             n             y             y  
lsunit_pw                    n             n             y             y  
hru_wb                       n             n             y             y  
hru_nb                       n             n             y             y  
hru_ls                       n             n             y             y  
hru_pw                       y             n             y             y  
hru-lte_wb                   n             n             y             y  
hru-lte_nb                   n             n             y             y  
hru-lte_ls                   n             n             y             y  
hru-lte_pw                   n             n             y             y  
channel                      n             n             y             y  
channel_sd                   y             n             n             n
aquifer                      n             n             y             y  
reservoir                    n             n             y             y  
recall                       n             n             y             y  
hyd                          n             n             y             y  
ru                           n             n             y             y  
pest                         n             n             y             y  
