 FINAL_TRY                 SWAT+ Nov 30 2021    MODULAR Rev 2020.60.5.4                                   
                                        zmx       usle_k       sumfc       sumul      usle_p     usle_ls        esco        epco     cn3_swf       perco     latq_co   tiledrain 
 sname           hydgrp                 (mm)                    (mm)        (mm)                                                                                     0=notile;1=tile;
DSOLMap_942     C                  2000.0000      0.0000    301.6450    628.7346      1.0000     10.1394      0.9500      0.5000      0.9500      0.5000      0.0100           0
DSOLMap_942     C                  2000.0000      0.0000    301.6450    628.7346      1.0000      2.1051      0.9500      0.5000      0.9500      0.5000      0.0100           0
DSOLMap_798     C                  2000.0000      0.0000    264.6300    617.2902      1.0000      8.5184      0.9500      0.5000      0.9500      0.5000      0.0100           0
DSOLMap_798     C                  2000.0000      0.0000    264.6300    617.2902      1.0000      2.0960      0.9500      0.5000      0.9500      0.5000      0.0100           0
DSOLMap_798     C                  2000.0000      0.0000    264.6300    617.2902      1.0000      0.3729      0.9500      0.5000      0.9500      0.5000      0.0100           0
DSOLMap_786     C                  2000.0000      0.0000    263.4500    637.9336      1.0000      1.8294      0.9500      0.5000      0.9500      0.5000      0.0100           0
DSOLMap_786     C                  2000.0000      0.0000    263.4500    637.9336      1.0000      6.3295      0.9500      0.5000      0.9500      0.5000      0.0100           0
DSOLMap_786     C                  2000.0000      0.0000    263.4500    637.9336      1.0000      0.8028      0.9500      0.5000      0.9500      0.5000      0.0100           0
DSOLMap_786     C                  2000.0000      0.0000    263.4500    637.9336      1.0000      0.4217      0.9500      0.5000      0.9500      0.5000      0.0100           0
DSOLMap_785     C                  2000.0000      0.0000    188.8390    605.6492      1.0000      1.7093      0.9500      0.5000      0.9500      0.5000      0.0100           0
DSOLMap_785     C                  2000.0000      0.0000    188.8390    605.6492      1.0000      0.8119      0.9500      0.5000      0.9500      0.5000      0.0100           0
DSOLMap_785     C                  2000.0000      0.0000    188.8390    605.6492      1.0000      0.4361      0.9500      0.5000      0.9500      0.5000      0.0100           0
DSOLMap_942     C                  2000.0000      0.0000    301.6450    628.7346      1.0000      0.7122      0.9500      0.5000      0.9500      0.5000      0.0100           0
DSOLMap_942     C                  2000.0000      0.0000    301.6450    628.7346      1.0000      1.4276      0.9500      0.5000      0.9500      0.5000      0.0100           0
DSOLMap_942     C                  2000.0000      0.0000    301.6450    628.7346      1.0000      0.4479      0.9500      0.5000      0.9500      0.5000      0.0100           0
DSOLMap_786     C                  2000.0000      0.0000    263.4500    637.9336      1.0000      1.1609      0.9500      0.5000      0.9500      0.5000      0.0100           0
DSOLMap_786     C                  2000.0000      0.0000    263.4500    637.9336      1.0000      0.7572      0.9500      0.5000      0.9500      0.5000      0.0100           0
DSOLMap_786     C                  2000.0000      0.0000    263.4500    637.9336      1.0000      0.4113      0.9500      0.5000      0.9500      0.5000      0.0100           0
DSOLMap_785     C                  2000.0000      0.0000    188.8390    605.6492      1.0000      1.2920      0.9500      0.5000      0.9500      0.5000      0.0100           0
DSOLMap_785     C                  2000.0000      0.0000    188.8390    605.6492      1.0000      0.7691      0.9500      0.5000      0.9500      0.5000      0.0100           0
DSOLMap_785     C                  2000.0000      0.0000    188.8390    605.6492      1.0000      0.4332      0.9500      0.5000      0.9500      0.5000      0.0100           0
DSOLMap_942     C                  2000.0000      0.0000    301.6450    628.7346      1.0000     10.0898      0.9500      0.5000      0.9500      0.5000      0.0100           0
DSOLMap_942     C                  2000.0000      0.0000    301.6450    628.7346      1.0000      3.0761      0.9500      0.5000      0.9500      0.5000      0.0100           0
DSOLMap_785     C                  2000.0000      0.0000    188.8390    605.6492      1.0000      0.3446      0.9500      0.5000      0.9500      0.5000      0.0100           0
DSOLMap_785     C                  2000.0000      0.0000    188.8390    605.6492      1.0000      0.7994      0.9500      0.5000      0.9500      0.5000      0.0100           0
DSOLMap_785     C                  2000.0000      0.0000    188.8390    605.6492      1.0000      0.7638      0.9500      0.5000      0.9500      0.5000      0.0100           0
DSOLMap_942     C                  2000.0000      0.0000    301.6450    628.7346      1.0000      1.2261      0.9500      0.5000      0.9500      0.5000      0.0100           0
DSOLMap_942     C                  2000.0000      0.0000    301.6450    628.7346      1.0000      0.4617      0.9500      0.5000      0.9500      0.5000      0.0100           0
DSOLMap_942     C                  2000.0000      0.0000    301.6450    628.7346      1.0000      0.7863      0.9500      0.5000      0.9500      0.5000      0.0100           0
DSOLMap_785     C                  2000.0000      0.0000    188.8390    605.6492      1.0000      0.7355      0.9500      0.5000      0.9500      0.5000      0.0100           0
DSOLMap_785     C                  2000.0000      0.0000    188.8390    605.6492      1.0000      0.4153      0.9500      0.5000      0.9500      0.5000      0.0100           0
DSOLMap_785     C                  2000.0000      0.0000    188.8390    605.6492      1.0000      0.7909      0.9500      0.5000      0.9500      0.5000      0.0100           0
DSOLMap_785     C                  2000.0000      0.0000    188.8390    605.6492      1.0000      0.7311      0.9500      0.5000      0.9500      0.5000      0.0100           0
DSOLMap_785     C                  2000.0000      0.0000    188.8390    605.6492      1.0000      0.3754      0.9500      0.5000      0.9500      0.5000      0.0100           0
DSOLMap_942     C                  2000.0000      0.0000    301.6450    628.7346      1.0000      8.4749      0.9500      0.5000      0.9500      0.5000      0.0100           0
DSOLMap_942     C                  2000.0000      0.0000    301.6450    628.7346      1.0000      2.3728      0.9500      0.5000      0.9500      0.5000      0.0100           0
DSOLMap_942     C                  2000.0000      0.0000    301.6450    628.7346      1.0000      0.3540      0.9500      0.5000      0.9500      0.5000      0.0100           0
DSOLMap_785     C                  2000.0000      0.0000    188.8390    605.6492      1.0000      6.3019      0.9500      0.5000      0.9500      0.5000      0.0100           0
DSOLMap_785     C                  2000.0000      0.0000    188.8390    605.6492      1.0000      3.0014      0.9500      0.5000      0.9500      0.5000      0.0100           0
DSOLMap_785     C                  2000.0000      0.0000    188.8390    605.6492      1.0000      0.3463      0.9500      0.5000      0.9500      0.5000      0.0100           0
DSOLMap_785     C                  2000.0000      0.0000    188.8390    605.6492      1.0000      0.6675      0.9500      0.5000      0.9500      0.5000      0.0100           0
DSOLMap_942     C                  2000.0000      0.0000    301.6450    628.7346      1.0000      1.2734      0.9500      0.5000      0.9500      0.5000      0.0100           0
DSOLMap_942     C                  2000.0000      0.0000    301.6450    628.7346      1.0000      0.7321      0.9500      0.5000      0.9500      0.5000      0.0100           0
DSOLMap_942     C                  2000.0000      0.0000    301.6450    628.7346      1.0000      0.4669      0.9500      0.5000      0.9500      0.5000      0.0100           0
DSOLMap_785     C                  2000.0000      0.0000    188.8390    605.6492      1.0000      0.7268      0.9500      0.5000      0.9500      0.5000      0.0100           0
DSOLMap_785     C                  2000.0000      0.0000    188.8390    605.6492      1.0000      0.4314      0.9500      0.5000      0.9500      0.5000      0.0100           0
DSOLMap_785     C                  2000.0000      0.0000    188.8390    605.6492      1.0000      0.3768      0.9500      0.5000      0.9500      0.5000      0.0100           0
DSOLMap_786     C                  2000.0000      0.0000    263.4500    637.9336      1.0000      0.7230      0.9500      0.5000      0.9500      0.5000      0.0100           0
DSOLMap_786     C                  2000.0000      0.0000    263.4500    637.9336      1.0000      0.3976      0.9500      0.5000      0.9500      0.5000      0.0100           0
DSOLMap_942     C                  2000.0000      0.0000    301.6450    628.7346      1.0000      0.3151      0.9500      0.5000      0.9500      0.5000      0.0100           0
DSOLMap_942     C                  2000.0000      0.0000    301.6450    628.7346      0.7500      0.2488      0.9500      0.5000      0.9500      0.5000      0.0100           0
DSOLMap_785     C                  2000.0000      0.0000    188.8390    605.6492      1.0000      1.3324      0.9500      0.5000      0.9500      0.5000      0.0100           0
DSOLMap_785     C                  2000.0000      0.0000    188.8390    605.6492      1.0000      0.7685      0.9500      0.5000      0.9500      0.5000      0.0100           0
DSOLMap_785     C                  2000.0000      0.0000    188.8390    605.6492      1.0000      0.4013      0.9500      0.5000      0.9500      0.5000      0.0100           0
DSOLMap_786     C                  2000.0000      0.0000    263.4500    637.9336      1.0000      6.1584      0.9500      0.5000      0.9500      0.5000      0.0100           0
DSOLMap_786     C                  2000.0000      0.0000    263.4500    637.9336      1.0000      1.6049      0.9500      0.5000      0.9500      0.5000      0.0100           0
DSOLMap_786     C                  2000.0000      0.0000    263.4500    637.9336      1.0000      0.8015      0.9500      0.5000      0.9500      0.5000      0.0100           0
DSOLMap_786     C                  2000.0000      0.0000    263.4500    637.9336      1.0000      0.4423      0.9500      0.5000      0.9500      0.5000      0.0100           0
DSOLMap_942     C                  2000.0000      0.0000    301.6450    628.7346      1.0000      1.5331      0.9500      0.5000      0.9500      0.5000      0.0100           0
DSOLMap_942     C                  2000.0000      0.0000    301.6450    628.7346      1.0000      0.4507      0.9500      0.5000      0.9500      0.5000      0.0100           0
DSOLMap_942     C                  2000.0000      0.0000    301.6450    628.7346      1.0000      6.3230      0.9500      0.5000      0.9500      0.5000      0.0100           0
DSOLMap_942     C                  2000.0000      0.0000    301.6450    628.7346      1.0000      0.7623      0.9500      0.5000      0.9500      0.5000      0.0100           0
DSOLMap_785     C                  2000.0000      0.0000    188.8390    605.6492      1.0000      1.3618      0.9500      0.5000      0.9500      0.5000      0.0100           0
DSOLMap_785     C                  2000.0000      0.0000    188.8390    605.6492      1.0000      0.7848      0.9500      0.5000      0.9500      0.5000      0.0100           0
DSOLMap_785     C                  2000.0000      0.0000    188.8390    605.6492      1.0000      0.3775      0.9500      0.5000      0.9500      0.5000      0.0100           0
DSOLMap_942     C                  2000.0000      0.0000    301.6450    628.7346      1.0000      2.1161      0.9500      0.5000      0.9500      0.5000      0.0100           0
DSOLMap_942     C                  2000.0000      0.0000    301.6450    628.7346      1.0000      6.4711      0.9500      0.5000      0.9500      0.5000      0.0100           0
DSOLMap_942     C                  2000.0000      0.0000    301.6450    628.7346      1.0000      5.8537      0.9500      0.5000      0.9500      0.5000      0.0100           0
DSOLMap_942     C                  2000.0000      0.0000    301.6450    628.7346      1.0000      1.5984      0.9500      0.5000      0.9500      0.5000      0.0100           0
DSOLMap_942     C                  2000.0000      0.0000    301.6450    628.7346      1.0000      0.4390      0.9500      0.5000      0.9500      0.5000      0.0100           0
DSOLMap_942     C                  2000.0000      0.0000    301.6450    628.7346      1.0000      0.7863      0.9500      0.5000      0.9500      0.5000      0.0100           0
DSOLMap_786     C                  2000.0000      0.0000    263.4500    637.9336      1.0000      0.7806      0.9500      0.5000      0.9500      0.5000      0.0100           0
DSOLMap_786     C                  2000.0000      0.0000    263.4500    637.9336      1.0000      0.4212      0.9500      0.5000      0.9500      0.5000      0.0100           0
DSOLMap_786     C                  2000.0000      0.0000    263.4500    637.9336      1.0000      1.0041      0.9500      0.5000      0.9500      0.5000      0.0100           0
DSOLMap_785     C                  2000.0000      0.0000    188.8390    605.6492      1.0000      0.7508      0.9500      0.5000      0.9500      0.5000      0.0100           0
DSOLMap_785     C                  2000.0000      0.0000    188.8390    605.6492      1.0000      0.4113      0.9500      0.5000      0.9500      0.5000      0.0100           0
DSOLMap_785     C                  2000.0000      0.0000    188.8390    605.6492      1.0000      0.7165      0.9500      0.5000      0.9500      0.5000      0.0100           0
DSOLMap_942     C                  2000.0000      0.0000    301.6450    628.7346      1.0000      6.3063      0.9500      0.5000      0.9500      0.5000      0.0100           0
DSOLMap_942     C                  2000.0000      0.0000    301.6450    628.7346      1.0000      2.4995      0.9500      0.5000      0.9500      0.5000      0.0100           0
DSOLMap_942     C                  2000.0000      0.0000    301.6450    628.7346      1.0000      0.3293      0.9500      0.5000      0.9500      0.5000      0.0100           0
DSOLMap_798     C                  2000.0000      0.0000    264.6300    617.2902      1.0000      0.3989      0.9500      0.5000      0.9500      0.5000      0.0100           0
DSOLMap_798     C                  2000.0000      0.0000    264.6300    617.2902      1.0000      0.6666      0.9500      0.5000      0.9500      0.5000      0.0100           0
DSOLMap_786     C                  2000.0000      0.0000    263.4500    637.9336      1.0000      0.4066      0.9500      0.5000      0.9500      0.5000      0.0100           0
DSOLMap_786     C                  2000.0000      0.0000    263.4500    637.9336      1.0000      0.6860      0.9500      0.5000      0.9500      0.5000      0.0100           0
DSOLMap_942     C                  2000.0000      0.0000    301.6450    628.7346      1.0000      0.3509      0.9500      0.5000      0.9500      0.5000      0.0100           0
DSOLMap_942     C                  2000.0000      0.0000    301.6450    628.7346      1.0000      0.6995      0.9500      0.5000      0.9500      0.5000      0.0100           0
DSOLMap_798     C                  2000.0000      0.0000    264.6300    617.2902      1.0000      0.7082      0.9500      0.5000      0.9500      0.5000      0.0100           0
DSOLMap_798     C                  2000.0000      0.0000    264.6300    617.2902      1.0000      0.3962      0.9500      0.5000      0.9500      0.5000      0.0100           0
DSOLMap_785     C                  2000.0000      0.0000    188.8390    605.6492      1.0000      0.4492      0.9500      0.5000      0.9500      0.5000      0.0100           0
DSOLMap_942     C                  2000.0000      0.0000    301.6450    628.7346      1.0000      2.1116      0.9500      0.5000      0.9500      0.5000      0.0100           0
DSOLMap_942     C                  2000.0000      0.0000    301.6450    628.7346      1.0000      5.8999      0.9500      0.5000      0.9500      0.5000      0.0100           0
DSOLMap_942     C                  2000.0000      0.0000    301.6450    628.7346      1.0000      0.2423      0.9500      0.5000      0.9500      0.5000      0.0100           0
DSOLMap_786     C                  2000.0000      0.0000    263.4500    637.9336      1.0000      1.7306      0.9500      0.5000      0.9500      0.5000      0.0100           0
DSOLMap_786     C                  2000.0000      0.0000    263.4500    637.9336      1.0000      0.7386      0.9500      0.5000      0.9500      0.5000      0.0100           0
DSOLMap_786     C                  2000.0000      0.0000    263.4500    637.9336      1.0000      0.3418      0.9500      0.5000      0.9500      0.5000      0.0100           0
DSOLMap_798     C                  2000.0000      0.0000    264.6300    617.2902      1.0000      1.2358      0.9500      0.5000      0.9500      0.5000      0.0100           0
DSOLMap_798     C                  2000.0000      0.0000    264.6300    617.2902      1.0000      0.7597      0.9500      0.5000      0.9500      0.5000      0.0100           0
DSOLMap_798     C                  2000.0000      0.0000    264.6300    617.2902      1.0000      0.5191      0.9500      0.5000      0.9500      0.5000      0.0100           0
DSOLMap_786     C                  2000.0000      0.0000    263.4500    637.9336      1.0000      0.3900      0.9500      0.5000      0.9500      0.5000      0.0100           0
DSOLMap_786     C                  2000.0000      0.0000    263.4500    637.9336      1.0000      0.7327      0.9500      0.5000      0.9500      0.5000      0.0100           0
DSOLMap_785     C                  2000.0000      0.0000    188.8390    605.6492      1.0000      0.3413      0.9500      0.5000      0.9500      0.5000      0.0100           0
DSOLMap_785     C                  2000.0000      0.0000    188.8390    605.6492      1.0000      0.6840      0.9500      0.5000      0.9500      0.5000      0.0100           0
DSOLMap_798     C                  2000.0000      0.0000    264.6300    617.2902      1.0000      0.3649      0.9500      0.5000      0.9500      0.5000      0.0100           0
DSOLMap_798     C                  2000.0000      0.0000    264.6300    617.2902      1.0000      0.7506      0.9500      0.5000      0.9500      0.5000      0.0100           0
DSOLMap_942     C                  2000.0000      0.0000    301.6450    628.7346      1.0000      0.3018      0.9500      0.5000      0.9500      0.5000      0.0100           0
DSOLMap_786     C                  2000.0000      0.0000    263.4500    637.9336      0.7500      0.3276      0.9500      0.5000      0.9500      0.5000      0.0100           0
DSOLMap_798     C                  2000.0000      0.0000    264.6300    617.2902      0.7500      0.2871      0.9500      0.5000      0.9500      0.5000      0.0100           0
DSOLMap_798     C                  2000.0000      0.0000    264.6300    617.2902      0.7500      0.6389      0.9500      0.5000      0.9500      0.5000      0.0100           0
DSOLMap_785     C                  2000.0000      0.0000    188.8390    605.6492      0.7500      0.2727      0.9500      0.5000      0.9500      0.5000      0.0100           0
DSOLMap_785     C                  2000.0000      0.0000    188.8390    605.6492      0.7500      0.6079      0.9500      0.5000      0.9500      0.5000      0.0100           0
DSOLMap_942     C                  2000.0000      0.0000    301.6450    628.7346      0.7500      0.4182      0.9500      0.5000      0.9500      0.5000      0.0100           0
DSOLMap_785     C                  2000.0000      0.0000    188.8390    605.6492      1.0000      0.3506      0.9500      0.5000      0.9500      0.5000      0.0100           0
DSOLMap_785     C                  2000.0000      0.0000    188.8390    605.6492      1.0000      0.7293      0.9500      0.5000      0.9500      0.5000      0.0100           0
DSOLMap_786     C                  2000.0000      0.0000    263.4500    637.9336      1.0000      0.3668      0.9500      0.5000      0.9500      0.5000      0.0100           0
DSOLMap_942     C                  2000.0000      0.0000    301.6450    628.7346      1.0000      0.3146      0.9500      0.5000      0.9500      0.5000      0.0100           0
DSOLMap_786     C                  2000.0000      0.0000    263.4500    637.9336      0.7500      0.2931      0.9500      0.5000      0.9500      0.5000      0.0100           0
DSOLMap_942     C                  2000.0000      0.0000    301.6450    628.7346      0.7500      0.2660      0.9500      0.5000      0.9500      0.5000      0.0100           0
DSOLMap_785     C                  2000.0000      0.0000    188.8390    605.6492      1.0000      0.4444      0.9500      0.5000      0.9500      0.5000      0.0100           0
DSOLMap_785     C                  2000.0000      0.0000    188.8390    605.6492      1.0000      1.2589      0.9500      0.5000      0.9500      0.5000      0.0100           0
DSOLMap_785     C                  2000.0000      0.0000    188.8390    605.6492      1.0000      0.7484      0.9500      0.5000      0.9500      0.5000      0.0100           0
DSOLMap_942     C                  2000.0000      0.0000    301.6450    628.7346      1.0000      1.6971      0.9500      0.5000      0.9500      0.5000      0.0100           0
DSOLMap_942     C                  2000.0000      0.0000    301.6450    628.7346      1.0000      6.7796      0.9500      0.5000      0.9500      0.5000      0.0100           0
DSOLMap_785     C                  2000.0000      0.0000    188.8390    605.6492      1.0000      1.3701      0.9500      0.5000      0.9500      0.5000      0.0100           0
DSOLMap_785     C                  2000.0000      0.0000    188.8390    605.6492      1.0000      0.7612      0.9500      0.5000      0.9500      0.5000      0.0100           0
DSOLMap_785     C                  2000.0000      0.0000    188.8390    605.6492      1.0000      0.4225      0.9500      0.5000      0.9500      0.5000      0.0100           0
DSOLMap_942     C                  2000.0000      0.0000    301.6450    628.7346      1.0000      2.3270      0.9500      0.5000      0.9500      0.5000      0.0100           0
DSOLMap_942     C                  2000.0000      0.0000    301.6450    628.7346      1.0000      7.6836      0.9500      0.5000      0.9500      0.5000      0.0100           0
DSOLMap_785     C                  2000.0000      0.0000    188.8390    605.6492      1.0000      0.8854      0.9500      0.5000      0.9500      0.5000      0.0100           0
DSOLMap_785     C                  2000.0000      0.0000    188.8390    605.6492      1.0000      0.7189      0.9500      0.5000      0.9500      0.5000      0.0100           0
DSOLMap_785     C                  2000.0000      0.0000    188.8390    605.6492      1.0000      0.3477      0.9500      0.5000      0.9500      0.5000      0.0100           0
DSOLMap_785     C                  2000.0000      0.0000    188.8390    605.6492      1.0000      0.3832      0.9500      0.5000      0.9500      0.5000      0.0100           0
DSOLMap_785     C                  2000.0000      0.0000    188.8390    605.6492      1.0000      0.6851      0.9500      0.5000      0.9500      0.5000      0.0100           0
DSOLMap_786     C                  2000.0000      0.0000    263.4500    637.9336      1.0000      0.8899      0.9500      0.5000      0.9500      0.5000      0.0100           0
DSOLMap_786     C                  2000.0000      0.0000    263.4500    637.9336      1.0000      0.7203      0.9500      0.5000      0.9500      0.5000      0.0100           0
DSOLMap_786     C                  2000.0000      0.0000    263.4500    637.9336      1.0000      0.4082      0.9500      0.5000      0.9500      0.5000      0.0100           0
DSOLMap_942     C                  2000.0000      0.0000    301.6450    628.7346      1.0000      1.6106      0.9500      0.5000      0.9500      0.5000      0.0100           0
DSOLMap_942     C                  2000.0000      0.0000    301.6450    628.7346      1.0000      6.9462      0.9500      0.5000      0.9500      0.5000      0.0100           0
DSOLMap_942     C                  2000.0000      0.0000    301.6450    628.7346      1.0000      0.4968      0.9500      0.5000      0.9500      0.5000      0.0100           0
DSOLMap_942     C                  2000.0000      0.0000    301.6450    628.7346      1.0000      0.7454      0.9500      0.5000      0.9500      0.5000      0.0100           0
DSOLMap_785     C                  2000.0000      0.0000    188.8390    605.6492      1.0000      0.3147      0.9500      0.5000      0.9500      0.5000      0.0100           0
DSOLMap_786     C                  2000.0000      0.0000    263.4500    637.9336      1.0000      0.3495      0.9500      0.5000      0.9500      0.5000      0.0100           0
DSOLMap_786     C                  2000.0000      0.0000    263.4500    637.9336      1.0000      0.7380      0.9500      0.5000      0.9500      0.5000      0.0100           0
DSOLMap_785     C                  2000.0000      0.0000    188.8390    605.6492      1.0000      0.2752      0.9500      0.5000      0.9500      0.5000      0.0100           0
DSOLMap_785     C                  2000.0000      0.0000    188.8390    605.6492      1.0000      0.7195      0.9500      0.5000      0.9500      0.5000      0.0100           0
DSOLMap_786     C                  2000.0000      0.0000    263.4500    637.9336      1.0000      0.2881      0.9500      0.5000      0.9500      0.5000      0.0100           0
DSOLMap_786     C                  2000.0000      0.0000    263.4500    637.9336      1.0000      0.7986      0.9500      0.5000      0.9500      0.5000      0.0100           0
DSOLMap_942     C                  2000.0000      0.0000    301.6450    628.7346      1.0000      0.3543      0.9500      0.5000      0.9500      0.5000      0.0100           0
DSOLMap_942     C                  2000.0000      0.0000    301.6450    628.7346      1.0000      2.3356      0.9500      0.5000      0.9500      0.5000      0.0100           0
DSOLMap_942     C                  2000.0000      0.0000    301.6450    628.7346      1.0000      7.9869      0.9500      0.5000      0.9500      0.5000      0.0100           0
DSOLMap_942     C                  2000.0000      0.0000    301.6450    628.7346      0.7500      0.3382      0.9500      0.5000      0.9500      0.5000      0.0100           0
DSOLMap_942     C                  2000.0000      0.0000    301.6450    628.7346      1.0000      0.2959      0.9500      0.5000      0.9500      0.5000      0.0100           0
DSOLMap_942     C                  2000.0000      0.0000    301.6450    628.7346      1.0000      0.7095      0.9500      0.5000      0.9500      0.5000      0.0100           0
DSOLMap_942     C                  2000.0000      0.0000    301.6450    628.7346      1.0000      0.3299      0.9500      0.5000      0.9500      0.5000      0.0100           0
DSOLMap_785     C                  2000.0000      0.0000    188.8390    605.6492      1.0000      0.4269      0.9500      0.5000      0.9500      0.5000      0.0100           0
DSOLMap_785     C                  2000.0000      0.0000    188.8390    605.6492      1.0000      0.7261      0.9500      0.5000      0.9500      0.5000      0.0100           0
DSOLMap_785     C                  2000.0000      0.0000    188.8390    605.6492      1.0000      1.5315      0.9500      0.5000      0.9500      0.5000      0.0100           0
DSOLMap_786     C                  2000.0000      0.0000    263.4500    637.9336      1.0000      0.4066      0.9500      0.5000      0.9500      0.5000      0.0100           0
DSOLMap_786     C                  2000.0000      0.0000    263.4500    637.9336      1.0000      0.6997      0.9500      0.5000      0.9500      0.5000      0.0100           0
DSOLMap_785     C                  2000.0000      0.0000    188.8390    605.6492      1.0000      0.4000      0.9500      0.5000      0.9500      0.5000      0.0100           0
DSOLMap_785     C                  2000.0000      0.0000    188.8390    605.6492      1.0000      0.6739      0.9500      0.5000      0.9500      0.5000      0.0100           0
DSOLMap_786     C                  2000.0000      0.0000    263.4500    637.9336      1.0000      0.3811      0.9500      0.5000      0.9500      0.5000      0.0100           0
DSOLMap_786     C                  2000.0000      0.0000    263.4500    637.9336      1.0000      0.7035      0.9500      0.5000      0.9500      0.5000      0.0100           0
DSOLMap_942     C                  2000.0000      0.0000    301.6450    628.7346      1.0000      0.2645      0.9500      0.5000      0.9500      0.5000      0.0100           0
DSOLMap_786     C                  2000.0000      0.0000    263.4500    637.9336      1.0000      0.3848      0.9500      0.5000      0.9500      0.5000      0.0100           0
DSOLMap_786     C                  2000.0000      0.0000    263.4500    637.9336      1.0000      0.7138      0.9500      0.5000      0.9500      0.5000      0.0100           0
DSOLMap_785     C                  2000.0000      0.0000    188.8390    605.6492      1.0000      0.4182      0.9500      0.5000      0.9500      0.5000      0.0100           0
DSOLMap_785     C                  2000.0000      0.0000    188.8390    605.6492      1.0000      0.6861      0.9500      0.5000      0.9500      0.5000      0.0100           0
DSOLMap_942     C                  2000.0000      0.0000    301.6450    628.7346      1.0000      0.3399      0.9500      0.5000      0.9500      0.5000      0.0100           0
DSOLMap_942     C                  2000.0000      0.0000    301.6450    628.7346      0.7500      0.2606      0.9500      0.5000      0.9500      0.5000      0.0100           0
DSOLMap_786     C                  2000.0000      0.0000    263.4500    637.9336      0.7500      0.3069      0.9500      0.5000      0.9500      0.5000      0.0100           0
DSOLMap_942     C                  2000.0000      0.0000    301.6450    628.7346      1.0000      6.6319      0.9500      0.5000      0.9500      0.5000      0.0100           0
DSOLMap_942     C                  2000.0000      0.0000    301.6450    628.7346      1.0000      2.2396      0.9500      0.5000      0.9500      0.5000      0.0100           0
DSOLMap_786     C                  2000.0000      0.0000    263.4500    637.9336      1.0000      8.3048      0.9500      0.5000      0.9500      0.5000      0.0100           0
DSOLMap_786     C                  2000.0000      0.0000    263.4500    637.9336      1.0000      2.1358      0.9500      0.5000      0.9500      0.5000      0.0100           0
DSOLMap_786     C                  2000.0000      0.0000    263.4500    637.9336      1.0000      0.4466      0.9500      0.5000      0.9500      0.5000      0.0100           0
DSOLMap_786     C                  2000.0000      0.0000    263.4500    637.9336      1.0000      0.6846      0.9500      0.5000      0.9500      0.5000      0.0100           0
DSOLMap_786     C                  2000.0000      0.0000    263.4500    637.9336      1.0000      0.4276      0.9500      0.5000      0.9500      0.5000      0.0100           0
DSOLMap_942     C                  2000.0000      0.0000    301.6450    628.7346      1.0000      1.5403      0.9500      0.5000      0.9500      0.5000      0.0100           0
DSOLMap_942     C                  2000.0000      0.0000    301.6450    628.7346      1.0000      0.4272      0.9500      0.5000      0.9500      0.5000      0.0100           0
DSOLMap_942     C                  2000.0000      0.0000    301.6450    628.7346      1.0000      0.7583      0.9500      0.5000      0.9500      0.5000      0.0100           0
DSOLMap_942     C                  2000.0000      0.0000    301.6450    628.7346      1.0000      0.2881      0.9500      0.5000      0.9500      0.5000      0.0100           0
DSOLMap_786     C                  2000.0000      0.0000    263.4500    637.9336      1.0000      0.3465      0.9500      0.5000      0.9500      0.5000      0.0100           0
DSOLMap_786     C                  2000.0000      0.0000    263.4500    637.9336      1.0000      0.6079      0.9500      0.5000      0.9500      0.5000      0.0100           0
DSOLMap_785     C                  2000.0000      0.0000    188.8390    605.6492      1.0000      0.3149      0.9500      0.5000      0.9500      0.5000      0.0100           0
DSOLMap_942     C                  2000.0000      0.0000    301.6450    628.7346      0.7500      0.2138      0.9500      0.5000      0.9500      0.5000      0.0100           0
DSOLMap_785     C                  2000.0000      0.0000    188.8390    605.6492      1.0000      0.3719      0.9500      0.5000      0.9500      0.5000      0.0100           0
DSOLMap_785     C                  2000.0000      0.0000    188.8390    605.6492      1.0000      0.6646      0.9500      0.5000      0.9500      0.5000      0.0100           0
DSOLMap_785     C                  2000.0000      0.0000    188.8390    605.6492      1.0000      1.1388      0.9500      0.5000      0.9500      0.5000      0.0100           0
DSOLMap_786     C                  2000.0000      0.0000    263.4500    637.9336      1.0000      0.3402      0.9500      0.5000      0.9500      0.5000      0.0100           0
DSOLMap_786     C                  2000.0000      0.0000    263.4500    637.9336      1.0000      0.8288      0.9500      0.5000      0.9500      0.5000      0.0100           0
DSOLMap_786     C                  2000.0000      0.0000    263.4500    637.9336      1.0000      0.7615      0.9500      0.5000      0.9500      0.5000      0.0100           0
DSOLMap_942     C                  2000.0000      0.0000    301.6450    628.7346      1.0000      1.4996      0.9500      0.5000      0.9500      0.5000      0.0100           0
DSOLMap_942     C                  2000.0000      0.0000    301.6450    628.7346      1.0000      0.4530      0.9500      0.5000      0.9500      0.5000      0.0100           0
DSOLMap_942     C                  2000.0000      0.0000    301.6450    628.7346      1.0000      0.7526      0.9500      0.5000      0.9500      0.5000      0.0100           0
DSOLMap_785     C                  2000.0000      0.0000    188.8390    605.6492      1.0000      0.3270      0.9500      0.5000      0.9500      0.5000      0.0100           0
DSOLMap_785     C                  2000.0000      0.0000    188.8390    605.6492      1.0000      0.7209      0.9500      0.5000      0.9500      0.5000      0.0100           0
DSOLMap_786     C                  2000.0000      0.0000    263.4500    637.9336      1.0000      0.3194      0.9500      0.5000      0.9500      0.5000      0.0100           0
DSOLMap_786     C                  2000.0000      0.0000    263.4500    637.9336      1.0000      0.7651      0.9500      0.5000      0.9500      0.5000      0.0100           0
DSOLMap_786     C                  2000.0000      0.0000    263.4500    637.9336      1.0000      0.2897      0.9500      0.5000      0.9500      0.5000      0.0100           0
DSOLMap_786     C                  2000.0000      0.0000    263.4500    637.9336      1.0000      0.6796      0.9500      0.5000      0.9500      0.5000      0.0100           0
DSOLMap_785     C                  2000.0000      0.0000    188.8390    605.6492      1.0000      0.3468      0.9500      0.5000      0.9500      0.5000      0.0100           0
DSOLMap_785     C                  2000.0000      0.0000    188.8390    605.6492      1.0000      0.8567      0.9500      0.5000      0.9500      0.5000      0.0100           0
DSOLMap_785     C                  2000.0000      0.0000    188.8390    605.6492      1.0000      0.7707      0.9500      0.5000      0.9500      0.5000      0.0100           0
DSOLMap_942     C                  2000.0000      0.0000    301.6450    628.7346      1.0000      6.4370      0.9500      0.5000      0.9500      0.5000      0.0100           0
DSOLMap_942     C                  2000.0000      0.0000    301.6450    628.7346      1.0000      2.0139      0.9500      0.5000      0.9500      0.5000      0.0100           0
DSOLMap_942     C                  2000.0000      0.0000    301.6450    628.7346      1.0000      0.4003      0.9500      0.5000      0.9500      0.5000      0.0100           0
DSOLMap_942     C                  2000.0000      0.0000    301.6450    628.7346      1.0000      6.4284      0.9500      0.5000      0.9500      0.5000      0.0100           0
DSOLMap_942     C                  2000.0000      0.0000    301.6450    628.7346      1.0000      1.7751      0.9500      0.5000      0.9500      0.5000      0.0100           0
DSOLMap_942     C                  2000.0000      0.0000    301.6450    628.7346      1.0000      0.3991      0.9500      0.5000      0.9500      0.5000      0.0100           0
DSOLMap_942     C                  2000.0000      0.0000    301.6450    628.7346      1.0000      0.7438      0.9500      0.5000      0.9500      0.5000      0.0100           0
DSOLMap_942     C                  2000.0000      0.0000    301.6450    628.7346      1.0000      1.0285      0.9500      0.5000      0.9500      0.5000      0.0100           0
DSOLMap_942     C                  2000.0000      0.0000    301.6450    628.7346      1.0000      0.7701      0.9500      0.5000      0.9500      0.5000      0.0100           0
DSOLMap_942     C                  2000.0000      0.0000    301.6450    628.7346      1.0000      0.4202      0.9500      0.5000      0.9500      0.5000      0.0100           0
DSOLMap_786     C                  2000.0000      0.0000    263.4500    637.9336      1.0000      1.0486      0.9500      0.5000      0.9500      0.5000      0.0100           0
DSOLMap_786     C                  2000.0000      0.0000    263.4500    637.9336      1.0000      0.4058      0.9500      0.5000      0.9500      0.5000      0.0100           0
DSOLMap_786     C                  2000.0000      0.0000    263.4500    637.9336      1.0000      0.7629      0.9500      0.5000      0.9500      0.5000      0.0100           0
DSOLMap_785     C                  2000.0000      0.0000    188.8390    605.6492      1.0000      0.4375      0.9500      0.5000      0.9500      0.5000      0.0100           0
DSOLMap_785     C                  2000.0000      0.0000    188.8390    605.6492      1.0000      0.7238      0.9500      0.5000      0.9500      0.5000      0.0100           0
DSOLMap_785     C                  2000.0000      0.0000    188.8390    605.6492      1.0000      1.3068      0.9500      0.5000      0.9500      0.5000      0.0100           0
DSOLMap_786     C                  2000.0000      0.0000    263.4500    637.9336      1.0000      0.4177      0.9500      0.5000      0.9500      0.5000      0.0100           0
DSOLMap_786     C                  2000.0000      0.0000    263.4500    637.9336      1.0000      0.7903      0.9500      0.5000      0.9500      0.5000      0.0100           0
DSOLMap_786     C                  2000.0000      0.0000    263.4500    637.9336      1.0000      1.5422      0.9500      0.5000      0.9500      0.5000      0.0100           0
DSOLMap_785     C                  2000.0000      0.0000    188.8390    605.6492      1.0000      0.4276      0.9500      0.5000      0.9500      0.5000      0.0100           0
DSOLMap_785     C                  2000.0000      0.0000    188.8390    605.6492      1.0000      0.7604      0.9500      0.5000      0.9500      0.5000      0.0100           0
DSOLMap_785     C                  2000.0000      0.0000    188.8390    605.6492      1.0000      1.2487      0.9500      0.5000      0.9500      0.5000      0.0100           0
DSOLMap_785     C                  2000.0000      0.0000    188.8390    605.6492      1.0000      0.9778      0.9500      0.5000      0.9500      0.5000      0.0100           0
DSOLMap_785     C                  2000.0000      0.0000    188.8390    605.6492      1.0000      0.4040      0.9500      0.5000      0.9500      0.5000      0.0100           0
DSOLMap_785     C                  2000.0000      0.0000    188.8390    605.6492      1.0000      0.7303      0.9500      0.5000      0.9500      0.5000      0.0100           0
DSOLMap_786     C                  2000.0000      0.0000    263.4500    637.9336      1.0000      0.7402      0.9500      0.5000      0.9500      0.5000      0.0100           0
DSOLMap_786     C                  2000.0000      0.0000    263.4500    637.9336      1.0000      0.3907      0.9500      0.5000      0.9500      0.5000      0.0100           0
DSOLMap_786     C                  2000.0000      0.0000    263.4500    637.9336      1.0000      0.3895      0.9500      0.5000      0.9500      0.5000      0.0100           0
DSOLMap_786     C                  2000.0000      0.0000    263.4500    637.9336      1.0000      0.7737      0.9500      0.5000      0.9500      0.5000      0.0100           0
DSOLMap_786     C                  2000.0000      0.0000    263.4500    637.9336      1.0000      0.7681      0.9500      0.5000      0.9500      0.5000      0.0100           0
DSOLMap_785     C                  2000.0000      0.0000    188.8390    605.6492      1.0000      0.3708      0.9500      0.5000      0.9500      0.5000      0.0100           0
DSOLMap_785     C                  2000.0000      0.0000    188.8390    605.6492      1.0000      0.7358      0.9500      0.5000      0.9500      0.5000      0.0100           0
DSOLMap_785     C                  2000.0000      0.0000    188.8390    605.6492      1.0000      0.8450      0.9500      0.5000      0.9500      0.5000      0.0100           0
DSOLMap_942     C                  2000.0000      0.0000    301.6450    628.7346      1.0000      0.3757      0.9500      0.5000      0.9500      0.5000      0.0100           0
DSOLMap_942     C                  2000.0000      0.0000    301.6450    628.7346      1.0000      0.7824      0.9500      0.5000      0.9500      0.5000      0.0100           0
DSOLMap_942     C                  2000.0000      0.0000    301.6450    628.7346      1.0000      0.8437      0.9500      0.5000      0.9500      0.5000      0.0100           0
DSOLMap_785     C                  2000.0000      0.0000    188.8390    605.6492      1.0000      0.3877      0.9500      0.5000      0.9500      0.5000      0.0100           0
DSOLMap_785     C                  2000.0000      0.0000    188.8390    605.6492      1.0000      0.7389      0.9500      0.5000      0.9500      0.5000      0.0100           0
DSOLMap_785     C                  2000.0000      0.0000    188.8390    605.6492      1.0000      1.0251      0.9500      0.5000      0.9500      0.5000      0.0100           0
DSOLMap_786     C                  2000.0000      0.0000    263.4500    637.9336      1.0000      0.7361      0.9500      0.5000      0.9500      0.5000      0.0100           0
DSOLMap_786     C                  2000.0000      0.0000    263.4500    637.9336      1.0000      0.4237      0.9500      0.5000      0.9500      0.5000      0.0100           0
DSOLMap_786     C                  2000.0000      0.0000    263.4500    637.9336      1.0000      0.8159      0.9500      0.5000      0.9500      0.5000      0.0100           0
DSOLMap_785     C                  2000.0000      0.0000    188.8390    605.6492      1.0000      0.3756      0.9500      0.5000      0.9500      0.5000      0.0100           0
DSOLMap_785     C                  2000.0000      0.0000    188.8390    605.6492      1.0000      0.7888      0.9500      0.5000      0.9500      0.5000      0.0100           0
DSOLMap_785     C                  2000.0000      0.0000    188.8390    605.6492      1.0000      0.4354      0.9500      0.5000      0.9500      0.5000      0.0100           0
DSOLMap_785     C                  2000.0000      0.0000    188.8390    605.6492      1.0000      0.7675      0.9500      0.5000      0.9500      0.5000      0.0100           0
DSOLMap_785     C                  2000.0000      0.0000    188.8390    605.6492      1.0000      0.8293      0.9500      0.5000      0.9500      0.5000      0.0100           0
DSOLMap_782     C                  2000.0000      0.0000    193.9890    563.9609      1.0000      0.4062      0.9500      0.5000      0.9500      0.5000      0.0100           0
DSOLMap_782     C                  2000.0000      0.0000    193.9890    563.9609      1.0000      0.8348      0.9500      0.5000      0.9500      0.5000      0.0100           0
DSOLMap_782     C                  2000.0000      0.0000    193.9890    563.9609      1.0000      0.7385      0.9500      0.5000      0.9500      0.5000      0.0100           0
DSOLMap_786     C                  2000.0000      0.0000    263.4500    637.9336      1.0000      0.4461      0.9500      0.5000      0.9500      0.5000      0.0100           0
DSOLMap_786     C                  2000.0000      0.0000    263.4500    637.9336      1.0000      0.7367      0.9500      0.5000      0.9500      0.5000      0.0100           0
DSOLMap_786     C                  2000.0000      0.0000    263.4500    637.9336      1.0000      0.7522      0.9500      0.5000      0.9500      0.5000      0.0100           0
DSOLMap_785     C                  2000.0000      0.0000    188.8390    605.6492      1.0000      0.7615      0.9500      0.5000      0.9500      0.5000      0.0100           0
DSOLMap_785     C                  2000.0000      0.0000    188.8390    605.6492      1.0000      0.4166      0.9500      0.5000      0.9500      0.5000      0.0100           0
DSOLMap_785     C                  2000.0000      0.0000    188.8390    605.6492      1.0000      0.7900      0.9500      0.5000      0.9500      0.5000      0.0100           0
DSOLMap_782     C                  2000.0000      0.0000    193.9890    563.9609      1.0000      0.3929      0.9500      0.5000      0.9500      0.5000      0.0100           0
DSOLMap_782     C                  2000.0000      0.0000    193.9890    563.9609      1.0000      0.6720      0.9500      0.5000      0.9500      0.5000      0.0100           0
DSOLMap_782     C                  2000.0000      0.0000    193.9890    563.9609      1.0000      0.7469      0.9500      0.5000      0.9500      0.5000      0.0100           0
DSOLMap_786     C                  2000.0000      0.0000    263.4500    637.9336      1.0000      0.8163      0.9500      0.5000      0.9500      0.5000      0.0100           0
DSOLMap_786     C                  2000.0000      0.0000    263.4500    637.9336      1.0000      0.3394      0.9500      0.5000      0.9500      0.5000      0.0100           0
DSOLMap_786     C                  2000.0000      0.0000    263.4500    637.9336      1.0000      0.6974      0.9500      0.5000      0.9500      0.5000      0.0100           0
DSOLMap_785     C                  2000.0000      0.0000    188.8390    605.6492      1.0000      0.4130      0.9500      0.5000      0.9500      0.5000      0.0100           0
DSOLMap_785     C                  2000.0000      0.0000    188.8390    605.6492      1.0000      0.7637      0.9500      0.5000      0.9500      0.5000      0.0100           0
DSOLMap_785     C                  2000.0000      0.0000    188.8390    605.6492      1.0000      1.6567      0.9500      0.5000      0.9500      0.5000      0.0100           0
DSOLMap_785     C                  2000.0000      0.0000    188.8390    605.6492      1.0000      0.4312      0.9500      0.5000      0.9500      0.5000      0.0100           0
DSOLMap_785     C                  2000.0000      0.0000    188.8390    605.6492      1.0000      0.7561      0.9500      0.5000      0.9500      0.5000      0.0100           0
DSOLMap_785     C                  2000.0000      0.0000    188.8390    605.6492      1.0000      0.9575      0.9500      0.5000      0.9500      0.5000      0.0100           0
DSOLMap_782     C                  2000.0000      0.0000    193.9890    563.9609      1.0000      1.1362      0.9500      0.5000      0.9500      0.5000      0.0100           0
DSOLMap_782     C                  2000.0000      0.0000    193.9890    563.9609      1.0000      0.7876      0.9500      0.5000      0.9500      0.5000      0.0100           0
DSOLMap_782     C                  2000.0000      0.0000    193.9890    563.9609      1.0000      0.4186      0.9500      0.5000      0.9500      0.5000      0.0100           0
DSOLMap_785     C                  2000.0000      0.0000    188.8390    605.6492      1.0000      0.7632      0.9500      0.5000      0.9500      0.5000      0.0100           0
DSOLMap_785     C                  2000.0000      0.0000    188.8390    605.6492      1.0000      0.4075      0.9500      0.5000      0.9500      0.5000      0.0100           0
DSOLMap_785     C                  2000.0000      0.0000    188.8390    605.6492      1.0000      0.9703      0.9500      0.5000      0.9500      0.5000      0.0100           0
DSOLMap_785     C                  2000.0000      0.0000    188.8390    605.6492      1.0000      8.6433      0.9500      0.5000      0.9500      0.5000      0.0100           0
DSOLMap_782     C                  2000.0000      0.0000    193.9890    563.9609      1.0000      1.4547      0.9500      0.5000      0.9500      0.5000      0.0100           0
DSOLMap_782     C                  2000.0000      0.0000    193.9890    563.9609      1.0000      0.4156      0.9500      0.5000      0.9500      0.5000      0.0100           0
DSOLMap_782     C                  2000.0000      0.0000    193.9890    563.9609      1.0000      0.7007      0.9500      0.5000      0.9500      0.5000      0.0100           0
DSOLMap_786     C                  2000.0000      0.0000    263.4500    637.9336      1.0000      9.6937      0.9500      0.5000      0.9500      0.5000      0.0100           0
DSOLMap_786     C                  2000.0000      0.0000    263.4500    637.9336      1.0000      0.7547      0.9500      0.5000      0.9500      0.5000      0.0100           0
DSOLMap_786     C                  2000.0000      0.0000    263.4500    637.9336      1.0000      0.3982      0.9500      0.5000      0.9500      0.5000      0.0100           0
DSOLMap_786     C                  2000.0000      0.0000    263.4500    637.9336      1.0000      0.7209      0.9500      0.5000      0.9500      0.5000      0.0100           0
DSOLMap_786     C                  2000.0000      0.0000    263.4500    637.9336      1.0000      0.7221      0.9500      0.5000      0.9500      0.5000      0.0100           0
DSOLMap_942     C                  2000.0000      0.0000    301.6450    628.7346      1.0000      0.3909      0.9500      0.5000      0.9500      0.5000      0.0100           0
DSOLMap_942     C                  2000.0000      0.0000    301.6450    628.7346      1.0000      0.7375      0.9500      0.5000      0.9500      0.5000      0.0100           0
DSOLMap_785     C                  2000.0000      0.0000    188.8390    605.6492      1.0000      0.4151      0.9500      0.5000      0.9500      0.5000      0.0100           0
DSOLMap_785     C                  2000.0000      0.0000    188.8390    605.6492      1.0000      0.8063      0.9500      0.5000      0.9500      0.5000      0.0100           0
DSOLMap_785     C                  2000.0000      0.0000    188.8390    605.6492      1.0000      0.7361      0.9500      0.5000      0.9500      0.5000      0.0100           0
DSOLMap_942     C                  2000.0000      0.0000    301.6450    628.7346      1.0000      0.3809      0.9500      0.5000      0.9500      0.5000      0.0100           0
DSOLMap_942     C                  2000.0000      0.0000    301.6450    628.7346      1.0000      0.7747      0.9500      0.5000      0.9500      0.5000      0.0100           0
DSOLMap_942     C                  2000.0000      0.0000    301.6450    628.7346      1.0000      0.8526      0.9500      0.5000      0.9500      0.5000      0.0100           0
DSOLMap_786     C                  2000.0000      0.0000    263.4500    637.9336      1.0000      0.3602      0.9500      0.5000      0.9500      0.5000      0.0100           0
DSOLMap_786     C                  2000.0000      0.0000    263.4500    637.9336      1.0000      0.8406      0.9500      0.5000      0.9500      0.5000      0.0100           0
DSOLMap_785     C                  2000.0000      0.0000    188.8390    605.6492      1.0000      0.3645      0.9500      0.5000      0.9500      0.5000      0.0100           0
DSOLMap_785     C                  2000.0000      0.0000    188.8390    605.6492      1.0000      0.8391      0.9500      0.5000      0.9500      0.5000      0.0100           0
DSOLMap_785     C                  2000.0000      0.0000    188.8390    605.6492      1.0000      0.7744      0.9500      0.5000      0.9500      0.5000      0.0100           0
DSOLMap_942     C                  2000.0000      0.0000    301.6450    628.7346      1.0000      0.3451      0.9500      0.5000      0.9500      0.5000      0.0100           0
DSOLMap_942     C                  2000.0000      0.0000    301.6450    628.7346      1.0000      0.7047      0.9500      0.5000      0.9500      0.5000      0.0100           0
DSOLMap_786     C                  2000.0000      0.0000    263.4500    637.9336      1.0000      0.3951      0.9500      0.5000      0.9500      0.5000      0.0100           0
DSOLMap_786     C                  2000.0000      0.0000    263.4500    637.9336      1.0000      0.6920      0.9500      0.5000      0.9500      0.5000      0.0100           0
DSOLMap_785     C                  2000.0000      0.0000    188.8390    605.6492      1.0000      0.3940      0.9500      0.5000      0.9500      0.5000      0.0100           0
DSOLMap_785     C                  2000.0000      0.0000    188.8390    605.6492      1.0000      0.7280      0.9500      0.5000      0.9500      0.5000      0.0100           0
DSOLMap_785     C                  2000.0000      0.0000    188.8390    605.6492      1.0000      0.7835      0.9500      0.5000      0.9500      0.5000      0.0100           0
DSOLMap_942     C                  2000.0000      0.0000    301.6450    628.7346      1.0000      0.3209      0.9500      0.5000      0.9500      0.5000      0.0100           0
DSOLMap_942     C                  2000.0000      0.0000    301.6450    628.7346      1.0000      0.7482      0.9500      0.5000      0.9500      0.5000      0.0100           0
DSOLMap_786     C                  2000.0000      0.0000    263.4500    637.9336      1.0000      0.3139      0.9500      0.5000      0.9500      0.5000      0.0100           0
DSOLMap_786     C                  2000.0000      0.0000    263.4500    637.9336      1.0000      0.8170      0.9500      0.5000      0.9500      0.5000      0.0100           0
DSOLMap_786     C                  2000.0000      0.0000    263.4500    637.9336      1.0000      0.6600      0.9500      0.5000      0.9500      0.5000      0.0100           0
DSOLMap_785     C                  2000.0000      0.0000    188.8390    605.6492      1.0000      0.3685      0.9500      0.5000      0.9500      0.5000      0.0100           0
DSOLMap_785     C                  2000.0000      0.0000    188.8390    605.6492      1.0000      0.7358      0.9500      0.5000      0.9500      0.5000      0.0100           0
DSOLMap_785     C                  2000.0000      0.0000    188.8390    605.6492      1.0000      0.4448      0.9500      0.5000      0.9500      0.5000      0.0100           0
DSOLMap_785     C                  2000.0000      0.0000    188.8390    605.6492      1.0000      0.7656      0.9500      0.5000      0.9500      0.5000      0.0100           0
DSOLMap_785     C                  2000.0000      0.0000    188.8390    605.6492      1.0000      1.2474      0.9500      0.5000      0.9500      0.5000      0.0100           0
DSOLMap_785     C                  2000.0000      0.0000    188.8390    605.6492      1.0000      0.7739      0.9500      0.5000      0.9500      0.5000      0.0100           0
DSOLMap_785     C                  2000.0000      0.0000    188.8390    605.6492      1.0000      0.3506      0.9500      0.5000      0.9500      0.5000      0.0100           0
DSOLMap_785     C                  2000.0000      0.0000    188.8390    605.6492      1.0000      0.8398      0.9500      0.5000      0.9500      0.5000      0.0100           0
DSOLMap_786     C                  2000.0000      0.0000    263.4500    637.9336      1.0000      0.2956      0.9500      0.5000      0.9500      0.5000      0.0100           0
DSOLMap_786     C                  2000.0000      0.0000    263.4500    637.9336      1.0000      0.6079      0.9500      0.5000      0.9500      0.5000      0.0100           0
DSOLMap_785     C                  2000.0000      0.0000    188.8390    605.6492      1.0000      0.4177      0.9500      0.5000      0.9500      0.5000      0.0100           0
DSOLMap_785     C                  2000.0000      0.0000    188.8390    605.6492      1.0000      0.6920      0.9500      0.5000      0.9500      0.5000      0.0100           0
DSOLMap_785     C                  2000.0000      0.0000    188.8390    605.6492      1.0000      0.9663      0.9500      0.5000      0.9500      0.5000      0.0100           0
DSOLMap_785     C                  2000.0000      0.0000    188.8390    605.6492      1.0000      0.7752      0.9500      0.5000      0.9500      0.5000      0.0100           0
DSOLMap_785     C                  2000.0000      0.0000    188.8390    605.6492      1.0000      0.3451      0.9500      0.5000      0.9500      0.5000      0.0100           0
DSOLMap_786     C                  2000.0000      0.0000    263.4500    637.9336      1.0000      0.2900      0.9500      0.5000      0.9500      0.5000      0.0100           0
DSOLMap_786     C                  2000.0000      0.0000    263.4500    637.9336      1.0000      0.6620      0.9500      0.5000      0.9500      0.5000      0.0100           0
DSOLMap_785     C                  2000.0000      0.0000    188.8390    605.6492      1.0000      0.4003      0.9500      0.5000      0.9500      0.5000      0.0100           0
DSOLMap_785     C                  2000.0000      0.0000    188.8390    605.6492      1.0000      0.6611      0.9500      0.5000      0.9500      0.5000      0.0100           0
DSOLMap_785     C                  2000.0000      0.0000    188.8390    605.6492      1.0000      0.7916      0.9500      0.5000      0.9500      0.5000      0.0100           0
DSOLMap_785     C                  2000.0000      0.0000    188.8390    605.6492      1.0000      0.4314      0.9500      0.5000      0.9500      0.5000      0.0100           0
DSOLMap_785     C                  2000.0000      0.0000    188.8390    605.6492      1.0000      0.8870      0.9500      0.5000      0.9500      0.5000      0.0100           0
DSOLMap_786     C                  2000.0000      0.0000    263.4500    637.9336      1.0000      0.4453      0.9500      0.5000      0.9500      0.5000      0.0100           0
DSOLMap_786     C                  2000.0000      0.0000    263.4500    637.9336      1.0000      0.7297      0.9500      0.5000      0.9500      0.5000      0.0100           0
DSOLMap_785     C                  2000.0000      0.0000    188.8390    605.6492      1.0000      0.8500      0.9500      0.5000      0.9500      0.5000      0.0100           0
DSOLMap_785     C                  2000.0000      0.0000    188.8390    605.6492      1.0000      0.7181      0.9500      0.5000      0.9500      0.5000      0.0100           0
DSOLMap_785     C                  2000.0000      0.0000    188.8390    605.6492      1.0000      0.4261      0.9500      0.5000      0.9500      0.5000      0.0100           0
DSOLMap_786     C                  2000.0000      0.0000    263.4500    637.9336      1.0000      0.3685      0.9500      0.5000      0.9500      0.5000      0.0100           0
DSOLMap_786     C                  2000.0000      0.0000    263.4500    637.9336      1.0000      0.6878      0.9500      0.5000      0.9500      0.5000      0.0100           0
DSOLMap_785     C                  2000.0000      0.0000    188.8390    605.6492      1.0000      1.5681      0.9500      0.5000      0.9500      0.5000      0.0100           0
DSOLMap_785     C                  2000.0000      0.0000    188.8390    605.6492      1.0000      0.4011      0.9500      0.5000      0.9500      0.5000      0.0100           0
DSOLMap_785     C                  2000.0000      0.0000    188.8390    605.6492      1.0000      0.7682      0.9500      0.5000      0.9500      0.5000      0.0100           0
DSOLMap_785     C                  2000.0000      0.0000    188.8390    605.6492      1.0000      0.7618      0.9500      0.5000      0.9500      0.5000      0.0100           0
DSOLMap_785     C                  2000.0000      0.0000    188.8390    605.6492      1.0000      0.7161      0.9500      0.5000      0.9500      0.5000      0.0100           0
DSOLMap_785     C                  2000.0000      0.0000    188.8390    605.6492      1.0000      0.3573      0.9500      0.5000      0.9500      0.5000      0.0100           0
DSOLMap_786     C                  2000.0000      0.0000    263.4500    637.9336      1.0000      0.2867      0.9500      0.5000      0.9500      0.5000      0.0100           0
DSOLMap_942     C                  2000.0000      0.0000    301.6450    628.7346      1.0000      0.4246      0.9500      0.5000      0.9500      0.5000      0.0100           0
DSOLMap_942     C                  2000.0000      0.0000    301.6450    628.7346      1.0000      0.7466      0.9500      0.5000      0.9500      0.5000      0.0100           0
DSOLMap_785     C                  2000.0000      0.0000    188.8390    605.6492      1.0000      0.7212      0.9500      0.5000      0.9500      0.5000      0.0100           0
DSOLMap_785     C                  2000.0000      0.0000    188.8390    605.6492      1.0000      0.3657      0.9500      0.5000      0.9500      0.5000      0.0100           0
DSOLMap_786     C                  2000.0000      0.0000    263.4500    637.9336      1.0000      0.3506      0.9500      0.5000      0.9500      0.5000      0.0100           0
DSOLMap_786     C                  2000.0000      0.0000    263.4500    637.9336      1.0000      0.6955      0.9500      0.5000      0.9500      0.5000      0.0100           0
DSOLMap_786     C                  2000.0000      0.0000    263.4500    637.9336      1.0000      0.4119      0.9500      0.5000      0.9500      0.5000      0.0100           0
DSOLMap_786     C                  2000.0000      0.0000    263.4500    637.9336      1.0000      0.7471      0.9500      0.5000      0.9500      0.5000      0.0100           0
DSOLMap_785     C                  2000.0000      0.0000    188.8390    605.6492      1.0000      0.3836      0.9500      0.5000      0.9500      0.5000      0.0100           0
DSOLMap_785     C                  2000.0000      0.0000    188.8390    605.6492      1.0000      0.7476      0.9500      0.5000      0.9500      0.5000      0.0100           0
DSOLMap_785     C                  2000.0000      0.0000    188.8390    605.6492      1.0000      0.7450      0.9500      0.5000      0.9500      0.5000      0.0100           0
DSOLMap_785     C                  2000.0000      0.0000    188.8390    605.6492      1.0000      0.3291      0.9500      0.5000      0.9500      0.5000      0.0100           0
DSOLMap_785     C                  2000.0000      0.0000    188.8390    605.6492      1.0000      0.7394      0.9500      0.5000      0.9500      0.5000      0.0100           0
DSOLMap_786     C                  2000.0000      0.0000    263.4500    637.9336      1.0000      0.3906      0.9500      0.5000      0.9500      0.5000      0.0100           0
DSOLMap_786     C                  2000.0000      0.0000    263.4500    637.9336      1.0000      0.7906      0.9500      0.5000      0.9500      0.5000      0.0100           0
DSOLMap_785     C                  2000.0000      0.0000    188.8390    605.6492      1.0000      0.4058      0.9500      0.5000      0.9500      0.5000      0.0100           0
DSOLMap_785     C                  2000.0000      0.0000    188.8390    605.6492      1.0000      0.7222      0.9500      0.5000      0.9500      0.5000      0.0100           0
DSOLMap_785     C                  2000.0000      0.0000    188.8390    605.6492      1.0000      0.7213      0.9500      0.5000      0.9500      0.5000      0.0100           0
DSOLMap_785     C                  2000.0000      0.0000    188.8390    605.6492      1.0000      0.7220      0.9500      0.5000      0.9500      0.5000      0.0100           0
DSOLMap_785     C                  2000.0000      0.0000    188.8390    605.6492      1.0000      0.4068      0.9500      0.5000      0.9500      0.5000      0.0100           0
DSOLMap_785     C                  2000.0000      0.0000    188.8390    605.6492      1.0000      0.6573      0.9500      0.5000      0.9500      0.5000      0.0100           0
DSOLMap_786     C                  2000.0000      0.0000    263.4500    637.9336      1.0000      0.6994      0.9500      0.5000      0.9500      0.5000      0.0100           0
DSOLMap_786     C                  2000.0000      0.0000    263.4500    637.9336      1.0000      0.3924      0.9500      0.5000      0.9500      0.5000      0.0100           0
DSOLMap_785     C                  2000.0000      0.0000    188.8390    605.6492      1.0000      0.7246      0.9500      0.5000      0.9500      0.5000      0.0100           0
DSOLMap_785     C                  2000.0000      0.0000    188.8390    605.6492      1.0000      0.3555      0.9500      0.5000      0.9500      0.5000      0.0100           0
DSOLMap_786     C                  2000.0000      0.0000    263.4500    637.9336      1.0000      0.3404      0.9500      0.5000      0.9500      0.5000      0.0100           0
DSOLMap_785     C                  2000.0000      0.0000    188.8390    605.6492      1.0000      0.4105      0.9500      0.5000      0.9500      0.5000      0.0100           0
DSOLMap_785     C                  2000.0000      0.0000    188.8390    605.6492      1.0000      1.3617      0.9500      0.5000      0.9500      0.5000      0.0100           0
DSOLMap_785     C                  2000.0000      0.0000    188.8390    605.6492      1.0000      0.7698      0.9500      0.5000      0.9500      0.5000      0.0100           0
DSOLMap_785     C                  2000.0000      0.0000    188.8390    605.6492      1.0000      0.3747      0.9500      0.5000      0.9500      0.5000      0.0100           0
DSOLMap_785     C                  2000.0000      0.0000    188.8390    605.6492      1.0000      0.7265      0.9500      0.5000      0.9500      0.5000      0.0100           0
DSOLMap_785     C                  2000.0000      0.0000    188.8390    605.6492      1.0000      0.4197      0.9500      0.5000      0.9500      0.5000      0.0100           0
DSOLMap_785     C                  2000.0000      0.0000    188.8390    605.6492      1.0000      0.7661      0.9500      0.5000      0.9500      0.5000      0.0100           0
DSOLMap_785     C                  2000.0000      0.0000    188.8390    605.6492      1.0000      0.7372      0.9500      0.5000      0.9500      0.5000      0.0100           0
DSOLMap_785     C                  2000.0000      0.0000    188.8390    605.6492      1.0000      0.3661      0.9500      0.5000      0.9500      0.5000      0.0100           0
DSOLMap_785     C                  2000.0000      0.0000    188.8390    605.6492      1.0000      0.7156      0.9500      0.5000      0.9500      0.5000      0.0100           0
DSOLMap_786     C                  2000.0000      0.0000    263.4500    637.9336      1.0000      0.3789      0.9500      0.5000      0.9500      0.5000      0.0100           0
DSOLMap_786     C                  2000.0000      0.0000    263.4500    637.9336      1.0000      0.6898      0.9500      0.5000      0.9500      0.5000      0.0100           0
DSOLMap_785     C                  2000.0000      0.0000    188.8390    605.6492      1.0000      0.3579      0.9500      0.5000      0.9500      0.5000      0.0100           0
DSOLMap_785     C                  2000.0000      0.0000    188.8390    605.6492      1.0000      0.7218      0.9500      0.5000      0.9500      0.5000      0.0100           0
DSOLMap_942     C                  2000.0000      0.0000    301.6450    628.7346      1.0000      0.3573      0.9500      0.5000      0.9500      0.5000      0.0100           0
DSOLMap_785     C                  2000.0000      0.0000    188.8390    605.6492      1.0000      0.3351      0.9500      0.5000      0.9500      0.5000      0.0100           0
DSOLMap_785     C                  2000.0000      0.0000    188.8390    605.6492      1.0000      0.6913      0.9500      0.5000      0.9500      0.5000      0.0100           0
DSOLMap_786     C                  2000.0000      0.0000    263.4500    637.9336      1.0000      0.3112      0.9500      0.5000      0.9500      0.5000      0.0100           0
DSOLMap_942     C                  2000.0000      0.0000    301.6450    628.7346      1.0000      0.3316      0.9500      0.5000      0.9500      0.5000      0.0100           0
DSOLMap_942     C                  2000.0000      0.0000    301.6450    628.7346      1.0000      0.6617      0.9500      0.5000      0.9500      0.5000      0.0100           0
DSOLMap_785     C                  2000.0000      0.0000    188.8390    605.6492      1.0000      0.4074      0.9500      0.5000      0.9500      0.5000      0.0100           0
DSOLMap_785     C                  2000.0000      0.0000    188.8390    605.6492      1.0000      0.7444      0.9500      0.5000      0.9500      0.5000      0.0100           0
DSOLMap_786     C                  2000.0000      0.0000    263.4500    637.9336      1.0000      0.4179      0.9500      0.5000      0.9500      0.5000      0.0100           0
DSOLMap_786     C                  2000.0000      0.0000    263.4500    637.9336      1.0000      0.7558      0.9500      0.5000      0.9500      0.5000      0.0100           0
DSOLMap_785     C                  2000.0000      0.0000    188.8390    605.6492      1.0000      0.3342      0.9500      0.5000      0.9500      0.5000      0.0100           0
DSOLMap_785     C                  2000.0000      0.0000    188.8390    605.6492      1.0000      0.7411      0.9500      0.5000      0.9500      0.5000      0.0100           0
DSOLMap_786     C                  2000.0000      0.0000    263.4500    637.9336      1.0000      0.3371      0.9500      0.5000      0.9500      0.5000      0.0100           0
DSOLMap_942     C                  2000.0000      0.0000    301.6450    628.7346      1.0000      0.2569      0.9500      0.5000      0.9500      0.5000      0.0100           0
DSOLMap_786     C                  2000.0000      0.0000    263.4500    637.9336      1.0000      0.3949      0.9500      0.5000      0.9500      0.5000      0.0100           0
DSOLMap_786     C                  2000.0000      0.0000    263.4500    637.9336      1.0000      0.6684      0.9500      0.5000      0.9500      0.5000      0.0100           0
DSOLMap_785     C                  2000.0000      0.0000    188.8390    605.6492      1.0000      0.3677      0.9500      0.5000      0.9500      0.5000      0.0100           0
DSOLMap_785     C                  2000.0000      0.0000    188.8390    605.6492      1.0000      0.6981      0.9500      0.5000      0.9500      0.5000      0.0100           0
DSOLMap_942     C                  2000.0000      0.0000    301.6450    628.7346      1.0000      0.4084      0.9500      0.5000      0.9500      0.5000      0.0100           0
DSOLMap_785     C                  2000.0000      0.0000    188.8390    605.6492      1.0000      0.4011      0.9500      0.5000      0.9500      0.5000      0.0100           0
DSOLMap_785     C                  2000.0000      0.0000    188.8390    605.6492      1.0000      0.7009      0.9500      0.5000      0.9500      0.5000      0.0100           0
DSOLMap_786     C                  2000.0000      0.0000    263.4500    637.9336      1.0000      0.3960      0.9500      0.5000      0.9500      0.5000      0.0100           0
DSOLMap_786     C                  2000.0000      0.0000    263.4500    637.9336      1.0000      0.6523      0.9500      0.5000      0.9500      0.5000      0.0100           0
DSOLMap_785     C                  2000.0000      0.0000    188.8390    605.6492      1.0000      0.3308      0.9500      0.5000      0.9500      0.5000      0.0100           0
DSOLMap_785     C                  2000.0000      0.0000    188.8390    605.6492      1.0000      0.6760      0.9500      0.5000      0.9500      0.5000      0.0100           0
DSOLMap_786     C                  2000.0000      0.0000    263.4500    637.9336      1.0000      0.6808      0.9500      0.5000      0.9500      0.5000      0.0100           0
DSOLMap_786     C                  2000.0000      0.0000    263.4500    637.9336      1.0000      0.3225      0.9500      0.5000      0.9500      0.5000      0.0100           0
DSOLMap_786     C                  2000.0000      0.0000    263.4500    637.9336      1.0000      0.4344      0.9500      0.5000      0.9500      0.5000      0.0100           0
DSOLMap_942     C                  2000.0000      0.0000    301.6450    628.7346      1.0000      0.3588      0.9500      0.5000      0.9500      0.5000      0.0100           0
DSOLMap_786     C                  2000.0000      0.0000    263.4500    637.9336      1.0000      0.2682      0.9500      0.5000      0.9500      0.5000      0.0100           0
DSOLMap_942     C                  2000.0000      0.0000    301.6450    628.7346      1.0000      0.3149      0.9500      0.5000      0.9500      0.5000      0.0100           0
DSOLMap_942     C                  2000.0000      0.0000    301.6450    628.7346      1.0000      0.7195      0.9500      0.5000      0.9500      0.5000      0.0100           0
DSOLMap_785     C                  2000.0000      0.0000    188.8390    605.6492      1.0000      0.2817      0.9500      0.5000      0.9500      0.5000      0.0100           0
DSOLMap_786     C                  2000.0000      0.0000    263.4500    637.9336      1.0000      0.3109      0.9500      0.5000      0.9500      0.5000      0.0100           0
DSOLMap_786     C                  2000.0000      0.0000    263.4500    637.9336      1.0000      0.7765      0.9500      0.5000      0.9500      0.5000      0.0100           0
DSOLMap_785     C                  2000.0000      0.0000    188.8390    605.6492      1.0000      0.2993      0.9500      0.5000      0.9500      0.5000      0.0100           0
DSOLMap_785     C                  2000.0000      0.0000    188.8390    605.6492      1.0000      0.8447      0.9500      0.5000      0.9500      0.5000      0.0100           0
DSOLMap_786     C                  2000.0000      0.0000    263.4500    637.9336      1.0000      0.3600      0.9500      0.5000      0.9500      0.5000      0.0100           0
DSOLMap_785     C                  2000.0000      0.0000    188.8390    605.6492      1.0000      0.7913      0.9500      0.5000      0.9500      0.5000      0.0100           0
DSOLMap_785     C                  2000.0000      0.0000    188.8390    605.6492      1.0000      0.3135      0.9500      0.5000      0.9500      0.5000      0.0100           0
DSOLMap_942     C                  2000.0000      0.0000    301.6450    628.7346      1.0000      0.4177      0.9500      0.5000      0.9500      0.5000      0.0100           0
DSOLMap_942     C                  2000.0000      0.0000    301.6450    628.7346      1.0000      0.6079      0.9500      0.5000      0.9500      0.5000      0.0100           0
DSOLMap_942     C                  2000.0000      0.0000    301.6450    628.7346      0.7500      0.2006      0.9500      0.5000      0.9500      0.5000      0.0100           0
DSOLMap_786     C                  2000.0000      0.0000    263.4500    637.9336      0.7500      0.4695      0.9500      0.5000      0.9500      0.5000      0.0100           0
DSOLMap_786     C                  2000.0000      0.0000    263.4500    637.9336      1.0000      0.3301      0.9500      0.5000      0.9500      0.5000      0.0100           0
DSOLMap_786     C                  2000.0000      0.0000    263.4500    637.9336      1.0000      0.8359      0.9500      0.5000      0.9500      0.5000      0.0100           0
DSOLMap_786     C                  2000.0000      0.0000    263.4500    637.9336      1.0000      0.6923      0.9500      0.5000      0.9500      0.5000      0.0100           0
DSOLMap_942     C                  2000.0000      0.0000    301.6450    628.7346      1.0000      8.0546      0.9500      0.5000      0.9500      0.5000      0.0100           0
DSOLMap_942     C                  2000.0000      0.0000    301.6450    628.7346      1.0000      1.9367      0.9500      0.5000      0.9500      0.5000      0.0100           0
DSOLMap_786     C                  2000.0000      0.0000    263.4500    637.9336      1.0000     10.4185      0.9500      0.5000      0.9500      0.5000      0.0100           0
DSOLMap_786     C                  2000.0000      0.0000    263.4500    637.9336      1.0000      1.9992      0.9500      0.5000      0.9500      0.5000      0.0100           0
DSOLMap_942     C                  2000.0000      0.0000    301.6450    628.7346      1.0000      7.1219      0.9500      0.5000      0.9500      0.5000      0.0100           0
DSOLMap_942     C                  2000.0000      0.0000    301.6450    628.7346      1.0000      1.3911      0.9500      0.5000      0.9500      0.5000      0.0100           0
DSOLMap_942     C                  2000.0000      0.0000    301.6450    628.7346      1.0000      0.4229      0.9500      0.5000      0.9500      0.5000      0.0100           0
DSOLMap_942     C                  2000.0000      0.0000    301.6450    628.7346      1.0000      0.7683      0.9500      0.5000      0.9500      0.5000      0.0100           0
DSOLMap_786     C                  2000.0000      0.0000    263.4500    637.9336      1.0000      1.3150      0.9500      0.5000      0.9500      0.5000      0.0100           0
DSOLMap_786     C                  2000.0000      0.0000    263.4500    637.9336      1.0000      0.4373      0.9500      0.5000      0.9500      0.5000      0.0100           0
DSOLMap_786     C                  2000.0000      0.0000    263.4500    637.9336      1.0000      0.7458      0.9500      0.5000      0.9500      0.5000      0.0100           0
DSOLMap_785     C                  2000.0000      0.0000    188.8390    605.6492      1.0000      0.8898      0.9500      0.5000      0.9500      0.5000      0.0100           0
DSOLMap_785     C                  2000.0000      0.0000    188.8390    605.6492      1.0000      0.3987      0.9500      0.5000      0.9500      0.5000      0.0100           0
DSOLMap_785     C                  2000.0000      0.0000    188.8390    605.6492      1.0000      0.7750      0.9500      0.5000      0.9500      0.5000      0.0100           0
DSOLMap_942     C                  2000.0000      0.0000    301.6450    628.7346      1.0000      9.4967      0.9500      0.5000      0.9500      0.5000      0.0100           0
[...]
DSOLMap_937     C                  2000.0000      0.0000    284.7300    616.4777      1.0000      1.6754      0.9500      0.5000      0.9500      0.5000      0.0100           0
DSOLMap_937     C                  2000.0000      0.0000    284.7300    616.4777      1.0000      7.7481      0.9500      0.5000      0.9500      0.5000      0.0100           0
DSOLMap_942     C                  2000.0000      0.0000    301.6450    628.7346      1.0000     10.9887      0.9500      0.5000      0.9500      0.5000      0.0100           0
DSOLMap_786     C                  2000.0000      0.0000    263.4500    637.9336      1.0000     12.1922      0.9500      0.5000      0.9500      0.5000      0.0100           0
DSOLMap_786     C                  2000.0000      0.0000    263.4500    637.9336      1.0000      2.2622      0.9500      0.5000      0.9500      0.5000      0.0100           0
DSOLMap_942     C                  2000.0000      0.0000    301.6450    628.7346      1.0000     11.5650      0.9500      0.5000      0.9500      0.5000      0.0100           0
DSOLMap_942     C                  2000.0000      0.0000    301.6450    628.7346      1.0000      1.6170      0.9500      0.5000      0.9500      0.5000      0.0100           0
DSOLMap_942     C                  2000.0000      0.0000    301.6450    628.7346      1.0000      0.0960      0.9500      0.5000      0.9500      0.5000      0.0100           0
DSOLMap_785     C                  2000.0000      0.0000    188.8390    605.6492      1.0000     13.0029      0.9500      0.5000      0.9500      0.5000      0.0100           0
DSOLMap_798     C                  2000.0000      0.0000    264.6300    617.2902      1.0000      8.3401      0.9500      0.5000      0.9500      0.5000      0.0100           0
DSOLMap_798     C                  2000.0000      0.0000    264.6300    617.2902      1.0000      2.8858      0.9500      0.5000      0.9500      0.5000      0.0100           0
DSOLMap_785     C                  2000.0000      0.0000    188.8390    605.6492      1.0000      7.5093      0.9500      0.5000      0.9500      0.5000      0.0100           0
DSOLMap_785     C                  2000.0000      0.0000    188.8390    605.6492      1.0000      2.7159      0.9500      0.5000      0.9500      0.5000      0.0100           0
DSOLMap_942     C                  2000.0000      0.0000    301.6450    628.7346      1.0000      9.7614      0.9500      0.5000      0.9500      0.5000      0.0100           0
DSOLMap_942     C                  2000.0000      0.0000    301.6450    628.7346      1.0000      2.3233      0.9500      0.5000      0.9500      0.5000      0.0100           0
DSOLMap_786     C                  2000.0000      0.0000    263.4500    637.9336      1.0000      2.7653      0.9500      0.5000      0.9500      0.5000      0.0100           0
DSOLMap_786     C                  2000.0000      0.0000    263.4500    637.9336      1.0000      8.3799      0.9500      0.5000      0.9500      0.5000      0.0100           0
DSOLMap_785     C                  2000.0000      0.0000    188.8390    605.6492      1.0000      5.9099      0.9500      0.5000      0.9500      0.5000      0.0100           0
DSOLMap_785     C                  2000.0000      0.0000    188.8390    605.6492      1.0000      2.8884      0.9500      0.5000      0.9500      0.5000      0.0100           0
DSOLMap_786     C                  2000.0000      0.0000    263.4500    637.9336      1.0000      2.3091      0.9500      0.5000      0.9500      0.5000      0.0100           0
DSOLMap_786     C                  2000.0000      0.0000    263.4500    637.9336      1.0000      6.0701      0.9500      0.5000      0.9500      0.5000      0.0100           0
DSOLMap_782     C                  2000.0000      0.0000    193.9890    563.9609      1.0000      8.9201      0.9500      0.5000      0.9500      0.5000      0.0100           0
DSOLMap_782     C                  2000.0000      0.0000    193.9890    563.9609      1.0000      3.0209      0.9500      0.5000      0.9500      0.5000      0.0100           0
DSOLMap_786     C                  2000.0000      0.0000    263.4500    637.9336      1.0000      6.7621      0.9500      0.5000      0.9500      0.5000      0.0100           0
DSOLMap_786     C                  2000.0000      0.0000    263.4500    637.9336      1.0000      2.8143      0.9500      0.5000      0.9500      0.5000      0.0100           0
DSOLMap_785     C                  2000.0000      0.0000    188.8390    605.6492      1.0000      7.4344      0.9500      0.5000      0.9500      0.5000      0.0100           0
DSOLMap_785     C                  2000.0000      0.0000    188.8390    605.6492      1.0000      2.6318      0.9500      0.5000      0.9500      0.5000      0.0100           0
DSOLMap_786     C                  2000.0000      0.0000    263.4500    637.9336      1.0000      2.7241      0.9500      0.5000      0.9500      0.5000      0.0100           0
DSOLMap_786     C                  2000.0000      0.0000    263.4500    637.9336      1.0000      7.3216      0.9500      0.5000      0.9500      0.5000      0.0100           0
DSOLMap_785     C                  2000.0000      0.0000    188.8390    605.6492      1.0000      7.0240      0.9500      0.5000      0.9500      0.5000      0.0100           0
DSOLMap_785     C                  2000.0000      0.0000    188.8390    605.6492      1.0000      2.9326      0.9500      0.5000      0.9500      0.5000      0.0100           0
DSOLMap_782     C                  2000.0000      0.0000    193.9890    563.9609      1.0000      7.7802      0.9500      0.5000      0.9500      0.5000      0.0100           0
DSOLMap_782     C                  2000.0000      0.0000    193.9890    563.9609      1.0000      2.3551      0.9500      0.5000      0.9500      0.5000      0.0100           0
DSOLMap_942     C                  2000.0000      0.0000    301.6450    628.7346      1.0000      9.7055      0.9500      0.5000      0.9500      0.5000      0.0100           0
DSOLMap_942     C                  2000.0000      0.0000    301.6450    628.7346      1.0000      2.2995      0.9500      0.5000      0.9500      0.5000      0.0100           0
DSOLMap_785     C                  2000.0000      0.0000    188.8390    605.6492      1.0000     10.6157      0.9500      0.5000      0.9500      0.5000      0.0100           0
DSOLMap_785     C                  2000.0000      0.0000    188.8390    605.6492      1.0000      3.1499      0.9500      0.5000      0.9500      0.5000      0.0100           0
DSOLMap_942     C                  2000.0000      0.0000    301.6450    628.7346      1.0000      9.4267      0.9500      0.5000      0.9500      0.5000      0.0100           0
DSOLMap_942     C                  2000.0000      0.0000    301.6450    628.7346      1.0000      2.9250      0.9500      0.5000      0.9500      0.5000      0.0100           0
DSOLMap_786     C                  2000.0000      0.0000    263.4500    637.9336      1.0000      8.2142      0.9500      0.5000      0.9500      0.5000      0.0100           0
DSOLMap_786     C                  2000.0000      0.0000    263.4500    637.9336      1.0000      2.1079      0.9500      0.5000      0.9500      0.5000      0.0100           0
DSOLMap_785     C                  2000.0000      0.0000    188.8390    605.6492      1.0000      2.8408      0.9500      0.5000      0.9500      0.5000      0.0100           0
DSOLMap_785     C                  2000.0000      0.0000    188.8390    605.6492      1.0000      8.2974      0.9500      0.5000      0.9500      0.5000      0.0100           0
DSOLMap_942     C                  2000.0000      0.0000    301.6450    628.7346      1.0000      9.6920      0.9500      0.5000      0.9500      0.5000      0.0100           0
DSOLMap_785     C                  2000.0000      0.0000    188.8390    605.6492      1.0000      9.6906      0.9500      0.5000      0.9500      0.5000      0.0100           0
DSOLMap_785     C                  2000.0000      0.0000    188.8390    605.6492      1.0000      2.2139      0.9500      0.5000      0.9500      0.5000      0.0100           0
DSOLMap_942     C                  2000.0000      0.0000    301.6450    628.7346      1.0000      8.5793      0.9500      0.5000      0.9500      0.5000      0.0100           0
DSOLMap_942     C                  2000.0000      0.0000    301.6450    628.7346      1.0000      2.8244      0.9500      0.5000      0.9500      0.5000      0.0100           0
DSOLMap_942     C                  2000.0000      0.0000    301.6450    628.7346      1.0000      9.2948      0.9500      0.5000      0.9500      0.5000      0.0100           0
DSOLMap_942     C                  2000.0000      0.0000    301.6450    628.7346      1.0000      2.5209      0.9500      0.5000      0.9500      0.5000      0.0100           0
DSOLMap_942     C                  2000.0000      0.0000    301.6450    628.7346      1.0000      8.6974      0.9500      0.5000      0.9500      0.5000      0.0100           0
DSOLMap_942     C                  2000.0000      0.0000    301.6450    628.7346      1.0000      2.8114      0.9500      0.5000      0.9500      0.5000      0.0100           0
DSOLMap_942     C                  2000.0000      0.0000    301.6450    628.7346      1.0000      2.1214      0.9500      0.5000      0.9500      0.5000      0.0100           0
DSOLMap_942     C                  2000.0000      0.0000    301.6450    628.7346      1.0000      8.7008      0.9500      0.5000      0.9500      0.5000      0.0100           0
DSOLMap_942     C                  2000.0000      0.0000    301.6450    628.7346      1.0000      8.5438      0.9500      0.5000      0.9500      0.5000      0.0100           0
DSOLMap_942     C                  2000.0000      0.0000    301.6450    628.7346      1.0000      2.8774      0.9500      0.5000      0.9500      0.5000      0.0100           0
DSOLMap_942     C                  2000.0000      0.0000    301.6450    628.7346      1.0000      9.0913      0.9500      0.5000      0.9500      0.5000      0.0100           0
DSOLMap_942     C                  2000.0000      0.0000    301.6450    628.7346      1.0000      2.8565      0.9500      0.5000      0.9500      0.5000      0.0100           0
DSOLMap_942     C                  2000.0000      0.0000    301.6450    628.7346      1.0000     10.8913      0.9500      0.5000      0.9500      0.5000      0.0100           0
DSOLMap_786     C                  2000.0000      0.0000    263.4500    637.9336      1.0000     11.7168      0.9500      0.5000      0.9500      0.5000      0.0100           0
DSOLMap_785     C                  2000.0000      0.0000    188.8390    605.6492      1.0000     10.2498      0.9500      0.5000      0.9500      0.5000      0.0100           0
DSOLMap_785     C                  2000.0000      0.0000    188.8390    605.6492      1.0000      2.7025      0.9500      0.5000      0.9500      0.5000      0.0100           0
DSOLMap_942     C                  2000.0000      0.0000    301.6450    628.7346      1.0000     12.9131      0.9500      0.5000      0.9500      0.5000      0.0100           0
DSOLMap_785     C                  2000.0000      0.0000    188.8390    605.6492      1.0000      9.7738      0.9500      0.5000      0.9500      0.5000      0.0100           0
DSOLMap_785     C                  2000.0000      0.0000    188.8390    605.6492      1.0000      2.4843      0.9500      0.5000      0.9500      0.5000      0.0100           0
DSOLMap_786     C                  2000.0000      0.0000    263.4500    637.9336      1.0000      2.5512      0.9500      0.5000      0.9500      0.5000      0.0100           0
DSOLMap_786     C                  2000.0000      0.0000    263.4500    637.9336      1.0000     10.5782      0.9500      0.5000      0.9500      0.5000      0.0100           0
DSOLMap_942     C                  2000.0000      0.0000    301.6450    628.7346      1.0000     12.5498      0.9500      0.5000      0.9500      0.5000      0.0100           0
DSOLMap_785     C                  2000.0000      0.0000    188.8390    605.6492      1.0000     12.9229      0.9500      0.5000      0.9500      0.5000      0.0100           0
DSOLMap_785     C                  2000.0000      0.0000    188.8390    605.6492      1.0000      2.3337      0.9500      0.5000      0.9500      0.5000      0.0100           0
DSOLMap_786     C                  2000.0000      0.0000    263.4500    637.9336      1.0000      2.2308      0.9500      0.5000      0.9500      0.5000      0.0100           0
DSOLMap_786     C                  2000.0000      0.0000    263.4500    637.9336      1.0000     10.2769      0.9500      0.5000      0.9500      0.5000      0.0100           0
DSOLMap_942     C                  2000.0000      0.0000    301.6450    628.7346      1.0000     12.2516      0.9500      0.5000      0.9500      0.5000      0.0100           0
DSOLMap_942     C                  2000.0000      0.0000    301.6450    628.7346      1.0000      2.1569      0.9500      0.5000      0.9500      0.5000      0.0100           0
DSOLMap_942     C                  2000.0000      0.0000    301.6450    628.7346      1.0000     14.4129      0.9500      0.5000      0.9500      0.5000      0.0100           0
DSOLMap_942     C                  2000.0000      0.0000    301.6450    628.7346      1.0000     12.4181      0.9500      0.5000      0.9500      0.5000      0.0100           0
DSOLMap_942     C                  2000.0000      0.0000    301.6450    628.7346      1.0000     10.6369      0.9500      0.5000      0.9500      0.5000      0.0100           0
DSOLMap_942     C                  2000.0000      0.0000    301.6450    628.7346      1.0000     11.4473      0.9500      0.5000      0.9500      0.5000      0.0100           0
DSOLMap_942     C                  2000.0000      0.0000    301.6450    628.7346      1.0000      2.0899      0.9500      0.5000      0.9500      0.5000      0.0100           0
DSOLMap_785     C                  2000.0000      0.0000    188.8390    605.6492      1.0000      0.2406      0.9500      0.5000      0.9500      0.5000      0.0100           0
DSOLMap_942     C                  2000.0000      0.0000    301.6450    628.7346      1.0000      0.2175      0.9500      0.5000      0.9500      0.5000      0.0100           0
DSOLMap_786     C                  2000.0000      0.0000    263.4500    637.9336      1.0000      0.1916      0.9500      0.5000      0.9500      0.5000      0.0100           0
DSOLMap_1884    B                  2000.0000      0.0000    239.7100    767.6328      1.0000      0.2863      0.9500      0.5000      0.9500      0.9000      0.0100           0
DSOLMap_1884    B                  2000.0000      0.0000    239.7100    767.6328      1.0000      0.2698      0.9500      0.5000      0.9500      0.9000      0.0100           0
DSOLMap_785     C                  2000.0000      0.0000    188.8390    605.6492      1.0000      0.2262      0.9500      0.5000      0.9500      0.5000      0.0100           0
DSOLMap_1877    B                  2000.0000      0.0000    165.4070    630.8068      1.0000      0.2736      0.9500      0.5000      0.9500      0.9000      0.0100           0
DSOLMap_785     C                  2000.0000      0.0000    188.8390    605.6492      1.0000      0.2373      0.9500      0.5000      0.9500      0.5000      0.0100           0
DSOLMap_1884    B                  2000.0000      0.0000    239.7100    767.6328      1.0000      0.2294      0.9500      0.5000      0.9500      0.9000      0.0100           0
DSOLMap_1884    B                  2000.0000      0.0000    239.7100    767.6328      1.0000      0.2523      0.9500      0.5000      0.9500      0.9000      0.0100           0
DSOLMap_785     C                  2000.0000      0.0000    188.8390    605.6492      1.0000      0.2292      0.9500      0.5000      0.9500      0.5000      0.0100           0
DSOLMap_1884    B                  2000.0000      0.0000    239.7100    767.6328      1.0000      0.2512      0.9500      0.5000      0.9500      0.9000      0.0100           0
DSOLMap_785     C                  2000.0000      0.0000    188.8390    605.6492      1.0000      0.2133      0.9500      0.5000      0.9500      0.5000      0.0100           0
DSOLMap_1884    B                  2000.0000      0.0000    239.7100    767.6328      1.0000      0.2348      0.9500      0.5000      0.9500      0.9000      0.0100           0
DSOLMap_1884    B                  2000.0000      0.0000    239.7100    767.6328      1.0000      0.2442      0.9500      0.5000      0.9500      0.9000      0.0100           0
DSOLMap_1740    B                  2000.0000      0.0000     90.9865    697.7399      1.0000      0.1951      0.9500      0.5000      0.9500      0.9000      0.0100           0
DSOLMap_785     C                  2000.0000      0.0000    188.8390    605.6492      1.0000      0.2200      0.9500      0.5000      0.9500      0.5000      0.0100           0
DSOLMap_1884    B                  2000.0000      0.0000    239.7100    767.6328      1.0000      0.2540      0.9500      0.5000      0.9500      0.9000      0.0100           0
DSOLMap_785     C                  2000.0000      0.0000    188.8390    605.6492      1.0000      0.2108      0.9500      0.5000      0.9500      0.5000      0.0100           0
DSOLMap_942     C                  2000.0000      0.0000    301.6450    628.7346      1.0000      0.1338      0.9500      0.5000      0.9500      0.5000      0.0100           0
DSOLMap_785     C                  2000.0000      0.0000    188.8390    605.6492      1.0000      0.0666      0.9500      0.5000      0.9500      0.5000      0.0100           0
DSOLMap_942     C                  2000.0000      0.0000    301.6450    628.7346      1.0000      0.0692      0.9500      0.5000      0.9500      0.5000      0.0100           0
DSOLMap_1884    B                  2000.0000      0.0000    239.7100    767.6328      1.0000      0.2767      0.9500      0.5000      0.9500      0.9000      0.0100           0
DSOLMap_1877    B                  2000.0000      0.0000    165.4070    630.8068      1.0000      0.2215      0.9500      0.5000      0.9500      0.9000      0.0100           0
DSOLMap_785     C                  2000.0000      0.0000    188.8390    605.6492      1.0000      0.2170      0.9500      0.5000      0.9500      0.5000      0.0100           0
DSOLMap_785     C                  2000.0000      0.0000    188.8390    605.6492      1.0000      0.0656      0.9500      0.5000      0.9500      0.5000      0.0100           0
DSOLMap_255     A                  2000.0000      0.0000     10.0000   1008.8680      1.0000      0.0650      0.9500      0.5000      0.9500      0.9000      0.0100           0
DSOLMap_785     C                  2000.0000      0.0000    188.8390    605.6492      1.0000      0.3981      0.9500      0.5000      0.9500      0.5000      0.0100           0
DSOLMap_785     C                  2000.0000      0.0000    188.8390    605.6492      1.0000      0.7765      0.9500      0.5000      0.9500      0.5000      0.0100           0
DSOLMap_785     C                  2000.0000      0.0000    188.8390    605.6492      1.0000      0.7339      0.9500      0.5000      0.9500      0.5000      0.0100           0
DSOLMap_1884    B                  2000.0000      0.0000    239.7100    767.6328      1.0000      0.3172      0.9500      0.5000      0.9500      0.9000      0.0100           0
DSOLMap_785     C                  2000.0000      0.0000    188.8390    605.6492      1.0000      0.2162      0.9500      0.5000      0.9500      0.5000      0.0100           0
DSOLMap_1884    B                  2000.0000      0.0000    239.7100    767.6328      1.0000      0.2844      0.9500      0.5000      0.9500      0.9000      0.0100           0
