                   SWAT+               
             Revision 60.5.4          
      Soil & Water Assessment Tool    
               PC Version             
    Program reading . . . executing


  Date of Sim  12/12/2024 Time  19: 1:23
 reading from precipitation file         Time  19: 1:23
 reading from temperature file           Time  19: 1:23
 reading from solar radiation file       Time  19: 1:23
 reading from relative humidity file     Time  19: 1:23
 reading from wind file                  Time  19: 1:23
 reading from wgn file                   Time  19: 1:23
 reading from wx station file            Time  19: 1:23
  Original Simulation        1   1  1981 Yr    1 of   11 Time  19: 1:24
