 Prueba3                   SWAT+ Jul 2 2024        MODULAR Rev 2024.61.0.1                                
                                        zmx       usle_k       sumfc       sumul      usle_p     usle_ls        esco        epco     cn3_swf       perco     latq_co   tiledrain 
 sname           hydgrp                 (mm)                    (mm)        (mm)                                                                                     0=notile;1=tile;
I-Bh-Tv-c-5518  C                  1000.0000      0.0000    120.0000    508.7464      1.0000     12.1171      0.9500      0.5000      0.9500      0.5000      0.0100           0
I-Kl-c-5533     C                  1000.0000      0.0000     90.0000    348.3389      1.0000     10.2104      0.9500      0.5000      0.9500      0.5000      0.0100           0
I-Bh-Tv-c-5518  C                  1000.0000      0.0000    120.0000    508.7464      1.0000      9.0938      0.9500      0.5000      0.9500      0.5000      0.0100           0
I-Kl-c-5533     C                  1000.0000      0.0000     90.0000    348.3389      1.0000      1.2528      0.9500      0.5000      0.9500      0.5000      0.0100           0
I-Kl-c-5533     C                  1000.0000      0.0000     90.0000    348.3389      1.0000      2.6558      0.9500      0.5000      0.9500      0.5000      0.0100           0
I-Kl-c-5533     C                  1000.0000      0.0000     90.0000    348.3389      1.0000      8.7780      0.9500      0.5000      0.9500      0.5000      0.0100           0
I-Bh-Tv-c-5518  C                  1000.0000      0.0000    120.0000    508.7464      1.0000      9.2805      0.9500      0.5000      0.9500      0.5000      0.0100           0
I-Bh-Tv-c-5518  C                  1000.0000      0.0000    120.0000    508.7464      1.0000      8.1081      0.9500      0.5000      0.9500      0.5000      0.0100           0
I-Bh-Tv-c-5518  C                  1000.0000      0.0000    120.0000    508.7464      1.0000      2.7085      0.9500      0.5000      0.9500      0.5000      0.0100           0
I-Bh-Tv-c-5518  C                  1000.0000      0.0000    120.0000    508.7464      1.0000      7.0323      0.9500      0.5000      0.9500      0.5000      0.0100           0
I-Bh-Tv-c-5518  C                  1000.0000      0.0000    120.0000    508.7464      1.0000      2.6916      0.9500      0.5000      0.9500      0.5000      0.0100           0
I-Bh-Tv-c-5518  C                  1000.0000      0.0000    120.0000    508.7464      1.0000      1.2550      0.9500      0.5000      0.9500      0.5000      0.0100           0
I-Kl-c-5533     C                  1000.0000      0.0000     90.0000    348.3389      1.0000      2.7867      0.9500      0.5000      0.9500      0.5000      0.0100           0
I-Kl-c-5533     C                  1000.0000      0.0000     90.0000    348.3389      1.0000      7.9641      0.9500      0.5000      0.9500      0.5000      0.0100           0
I-Kl-c-5533     C                  1000.0000      0.0000     90.0000    348.3389      1.0000      2.7290      0.9500      0.5000      0.9500      0.5000      0.0100           0
I-Kl-c-5533     C                  1000.0000      0.0000     90.0000    348.3389      1.0000      9.1776      0.9500      0.5000      0.9500      0.5000      0.0100           0
I-Kl-c-5533     C                  1000.0000      0.0000     90.0000    348.3389      1.0000      2.7844      0.9500      0.5000      0.9500      0.5000      0.0100           0
I-Kl-c-5533     C                  1000.0000      0.0000     90.0000    348.3389      1.0000      7.6719      0.9500      0.5000      0.9500      0.5000      0.0100           0
I-Bh-Tv-c-5518  C                  1000.0000      0.0000    120.0000    508.7464      1.0000      2.7128      0.9500      0.5000      0.9500      0.5000      0.0100           0
I-Bh-Tv-c-5518  C                  1000.0000      0.0000    120.0000    508.7464      1.0000      7.5052      0.9500      0.5000      0.9500      0.5000      0.0100           0
I-Bh-Tv-c-5518  C                  1000.0000      0.0000    120.0000    508.7464      1.0000      1.2411      0.9500      0.5000      0.9500      0.5000      0.0100           0
I-Bh-Tv-c-5518  C                  1000.0000      0.0000    120.0000    508.7464      1.0000      2.7291      0.9500      0.5000      0.9500      0.5000      0.0100           0
I-Bh-Tv-c-5518  C                  1000.0000      0.0000    120.0000    508.7464      1.0000      9.5705      0.9500      0.5000      0.9500      0.5000      0.0100           0
I-Bh-Tv-c-5518  C                  1000.0000      0.0000    120.0000    508.7464      1.0000      2.7272      0.9500      0.5000      0.9500      0.5000      0.0100           0
I-Bh-Tv-c-5518  C                  1000.0000      0.0000    120.0000    508.7464      1.0000      8.2707      0.9500      0.5000      0.9500      0.5000      0.0100           0
I-Bh-Tv-c-5518  C                  1000.0000      0.0000    120.0000    508.7464      1.0000      8.6894      0.9500      0.5000      0.9500      0.5000      0.0100           0
I-Bh-Tv-c-5518  C                  1000.0000      0.0000    120.0000    508.7464      1.0000      2.8056      0.9500      0.5000      0.9500      0.5000      0.0100           0
I-Bh-Tv-c-5518  C                  1000.0000      0.0000    120.0000    508.7464      1.0000     10.7956      0.9500      0.5000      0.9500      0.5000      0.0100           0
I-Kl-c-5533     C                  1000.0000      0.0000     90.0000    348.3389      1.0000     15.4819      0.9500      0.5000      0.9500      0.5000      0.0100           0
I-Kl-c-5533     C                  1000.0000      0.0000     90.0000    348.3389      1.0000     10.1644      0.9500      0.5000      0.9500      0.5000      0.0100           0
I-Bh-Tv-c-5518  C                  1000.0000      0.0000    120.0000    508.7464      1.0000     10.2157      0.9500      0.5000      0.9500      0.5000      0.0100           0
I-Kl-c-5533     C                  1000.0000      0.0000     90.0000    348.3389      1.0000     11.8277      0.9500      0.5000      0.9500      0.5000      0.0100           0
I-Kl-c-5533     C                  1000.0000      0.0000     90.0000    348.3389      1.0000     11.6175      0.9500      0.5000      0.9500      0.5000      0.0100           0
I-Kl-c-5533     C                  1000.0000      0.0000     90.0000    348.3389      1.0000     13.5492      0.9500      0.5000      0.9500      0.5000      0.0100           0
I-Kl-c-5533     C                  1000.0000      0.0000     90.0000    348.3389      1.0000     12.4599      0.9500      0.5000      0.9500      0.5000      0.0100           0
I-Bh-Tv-c-5518  C                  1000.0000      0.0000    120.0000    508.7464      1.0000      6.6717      0.9500      0.5000      0.9500      0.5000      0.0100           0
I-Hl-Kl-b-5527  D                  1000.0000      0.0000    120.0000    333.4589      1.0000      7.5451      0.9500      0.5000      0.9500      0.0500      0.0100           0
I-Bh-Tv-c-5518  C                  1000.0000      0.0000    120.0000    508.7464      1.0000      8.6494      0.9500      0.5000      0.9500      0.5000      0.0100           0
I-Hl-Kl-b-5527  D                  1000.0000      0.0000    120.0000    333.4589      1.0000      9.0180      0.9500      0.5000      0.9500      0.0500      0.0100           0
I-Hl-Kl-b-5527  D                  1000.0000      0.0000    120.0000    333.4589      1.0000      7.7851      0.9500      0.5000      0.9500      0.0500      0.0100           0
I-Hl-Kl-b-5527  D                  1000.0000      0.0000    120.0000    333.4589      1.0000      2.7256      0.9500      0.5000      0.9500      0.0500      0.0100           0
I-Bh-Tv-c-5518  C                  1000.0000      0.0000    120.0000    508.7464      1.0000     11.3191      0.9500      0.5000      0.9500      0.5000      0.0100           0
I-Bh-Tv-c-5518  C                  1000.0000      0.0000    120.0000    508.7464      1.0000      9.5705      0.9500      0.5000      0.9500      0.5000      0.0100           0
I-Bh-Tv-c-5518  C                  1000.0000      0.0000    120.0000    508.7464      1.0000      9.9150      0.9500      0.5000      0.9500      0.5000      0.0100           0
I-Bh-Tv-c-5518  C                  1000.0000      0.0000    120.0000    508.7464      1.0000      9.6878      0.9500      0.5000      0.9500      0.5000      0.0100           0
I-Bh-Tv-c-5518  C                  1000.0000      0.0000    120.0000    508.7464      1.0000      7.9026      0.9500      0.5000      0.9500      0.5000      0.0100           0
I-Bh-Tv-c-5518  C                  1000.0000      0.0000    120.0000    508.7464      1.0000     10.0633      0.9500      0.5000      0.9500      0.5000      0.0100           0
I-Hl-Kl-b-5527  D                  1000.0000      0.0000    120.0000    333.4589      1.0000      8.6458      0.9500      0.5000      0.9500      0.0500      0.0100           0
I-Bh-Tv-c-5518  C                  1000.0000      0.0000    120.0000    508.7464      1.0000     10.4405      0.9500      0.5000      0.9500      0.5000      0.0100           0
I-Bh-Tv-c-5518  C                  1000.0000      0.0000    120.0000    508.7464      1.0000     11.8697      0.9500      0.5000      0.9500      0.5000      0.0100           0
I-Bh-Tv-c-5518  C                  1000.0000      0.0000    120.0000    508.7464      1.0000     11.6105      0.9500      0.5000      0.9500      0.5000      0.0100           0
I-Bh-Tv-c-5518  C                  1000.0000      0.0000    120.0000    508.7464      1.0000     12.1278      0.9500      0.5000      0.9500      0.5000      0.0100           0
I-Kl-c-5533     C                  1000.0000      0.0000     90.0000    348.3389      1.0000     13.0784      0.9500      0.5000      0.9500      0.5000      0.0100           0
I-Kl-c-5533     C                  1000.0000      0.0000     90.0000    348.3389      1.0000     11.8939      0.9500      0.5000      0.9500      0.5000      0.0100           0
I-Kl-c-5533     C                  1000.0000      0.0000     90.0000    348.3389      1.0000      2.7475      0.9500      0.5000      0.9500      0.5000      0.0100           0
I-Kl-c-5533     C                  1000.0000      0.0000     90.0000    348.3389      1.0000      1.2886      0.9500      0.5000      0.9500      0.5000      0.0100           0
I-Kl-c-5533     C                  1000.0000      0.0000     90.0000    348.3389      1.0000      6.8555      0.9500      0.5000      0.9500      0.5000      0.0100           0
I-Kl-c-5533     C                  1000.0000      0.0000     90.0000    348.3389      1.0000      2.7360      0.9500      0.5000      0.9500      0.5000      0.0100           0
I-Kl-c-5533     C                  1000.0000      0.0000     90.0000    348.3389      1.0000      8.4014      0.9500      0.5000      0.9500      0.5000      0.0100           0
I-Kl-c-5533     C                  1000.0000      0.0000     90.0000    348.3389      1.0000      6.4504      0.9500      0.5000      0.9500      0.5000      0.0100           0
I-Kl-c-5533     C                  1000.0000      0.0000     90.0000    348.3389      1.0000      1.2132      0.9500      0.5000      0.9500      0.5000      0.0100           0
I-Kl-c-5533     C                  1000.0000      0.0000     90.0000    348.3389      1.0000      2.6603      0.9500      0.5000      0.9500      0.5000      0.0100           0
I-Kl-c-5533     C                  1000.0000      0.0000     90.0000    348.3389      1.0000      2.8068      0.9500      0.5000      0.9500      0.5000      0.0100           0
I-Kl-c-5533     C                  1000.0000      0.0000     90.0000    348.3389      1.0000      7.5898      0.9500      0.5000      0.9500      0.5000      0.0100           0
I-Kl-c-5533     C                  1000.0000      0.0000     90.0000    348.3389      1.0000      2.7457      0.9500      0.5000      0.9500      0.5000      0.0100           0
I-Kl-c-5533     C                  1000.0000      0.0000     90.0000    348.3389      1.0000     10.5655      0.9500      0.5000      0.9500      0.5000      0.0100           0
I-Kl-c-5533     C                  1000.0000      0.0000     90.0000    348.3389      1.0000     10.8077      0.9500      0.5000      0.9500      0.5000      0.0100           0
I-Kl-c-5533     C                  1000.0000      0.0000     90.0000    348.3389      1.0000     11.2748      0.9500      0.5000      0.9500      0.5000      0.0100           0
I-Kl-c-5533     C                  1000.0000      0.0000     90.0000    348.3389      1.0000     11.7716      0.9500      0.5000      0.9500      0.5000      0.0100           0
I-Kl-c-5533     C                  1000.0000      0.0000     90.0000    348.3389      1.0000     12.3945      0.9500      0.5000      0.9500      0.5000      0.0100           0
I-Kl-c-5533     C                  1000.0000      0.0000     90.0000    348.3389      1.0000     14.5840      0.9500      0.5000      0.9500      0.5000      0.0100           0
I-Kl-c-5533     C                  1000.0000      0.0000     90.0000    348.3389      1.0000     14.5232      0.9500      0.5000      0.9500      0.5000      0.0100           0
I-Kl-c-5533     C                  1000.0000      0.0000     90.0000    348.3389      1.0000     12.9033      0.9500      0.5000      0.9500      0.5000      0.0100           0
I-Kl-c-5533     C                  1000.0000      0.0000     90.0000    348.3389      1.0000     12.6612      0.9500      0.5000      0.9500      0.5000      0.0100           0
I-Kl-c-5533     C                  1000.0000      0.0000     90.0000    348.3389      1.0000      2.7626      0.9500      0.5000      0.9500      0.5000      0.0100           0
I-Kl-c-5533     C                  1000.0000      0.0000     90.0000    348.3389      1.0000     10.2467      0.9500      0.5000      0.9500      0.5000      0.0100           0
I-c-5548        C                  1000.0000      0.0000     20.0000    296.2045      1.0000     12.4375      0.9500      0.5000      0.9500      0.5000      0.0100           0
I-Kl-c-5533     C                  1000.0000      0.0000     90.0000    348.3389      1.0000     10.4481      0.9500      0.5000      0.9500      0.5000      0.0100           0
I-Kl-c-5533     C                  1000.0000      0.0000     90.0000    348.3389      1.0000     13.9440      0.9500      0.5000      0.9500      0.5000      0.0100           0
I-c-5548        C                  1000.0000      0.0000     20.0000    296.2045      1.0000     16.9912      0.9500      0.5000      0.9500      0.5000      0.0100           0
I-c-5548        C                  1000.0000      0.0000     20.0000    296.2045      1.0000     13.2526      0.9500      0.5000      0.9500      0.5000      0.0100           0
I-Kl-c-5533     C                  1000.0000      0.0000     90.0000    348.3389      1.0000     11.1158      0.9500      0.5000      0.9500      0.5000      0.0100           0
I-Kl-c-5533     C                  1000.0000      0.0000     90.0000    348.3389      1.0000      9.8888      0.9500      0.5000      0.9500      0.5000      0.0100           0
I-Hl-Kl-b-5527  D                  1000.0000      0.0000    120.0000    333.4589      1.0000      2.7557      0.9500      0.5000      0.9500      0.0500      0.0100           0
I-Hl-Kl-b-5527  D                  1000.0000      0.0000    120.0000    333.4589      1.0000     10.4481      0.9500      0.5000      0.9500      0.0500      0.0100           0
I-Hl-Kl-b-5527  D                  1000.0000      0.0000    120.0000    333.4589      1.0000      8.0324      0.9500      0.5000      0.9500      0.0500      0.0100           0
I-Hl-Kl-b-5527  D                  1000.0000      0.0000    120.0000    333.4589      1.0000      7.3253      0.9500      0.5000      0.9500      0.0500      0.0100           0
I-Kl-c-5533     C                  1000.0000      0.0000     90.0000    348.3389      1.0000     12.7375      0.9500      0.5000      0.9500      0.5000      0.0100           0
I-Kl-c-5533     C                  1000.0000      0.0000     90.0000    348.3389      1.0000     11.0534      0.9500      0.5000      0.9500      0.5000      0.0100           0
I-Kl-c-5533     C                  1000.0000      0.0000     90.0000    348.3389      1.0000      8.9285      0.9500      0.5000      0.9500      0.5000      0.0100           0
I-Kl-c-5533     C                  1000.0000      0.0000     90.0000    348.3389      1.0000      9.6769      0.9500      0.5000      0.9500      0.5000      0.0100           0
I-Kl-c-5533     C                  1000.0000      0.0000     90.0000    348.3389      1.0000      2.7524      0.9500      0.5000      0.9500      0.5000      0.0100           0
I-Hl-Kl-b-5527  D                  1000.0000      0.0000    120.0000    333.4589      1.0000      2.7567      0.9500      0.5000      0.9500      0.0500      0.0100           0
I-Hl-Kl-b-5527  D                  1000.0000      0.0000    120.0000    333.4589      1.0000      8.8617      0.9500      0.5000      0.9500      0.0500      0.0100           0
I-Hl-Kl-b-5527  D                  1000.0000      0.0000    120.0000    333.4589      1.0000      7.3911      0.9500      0.5000      0.9500      0.0500      0.0100           0
I-Hl-Kl-b-5527  D                  1000.0000      0.0000    120.0000    333.4589      1.0000      2.7405      0.9500      0.5000      0.9500      0.0500      0.0100           0
I-Kl-c-5533     C                  1000.0000      0.0000     90.0000    348.3389      1.0000      2.7138      0.9500      0.5000      0.9500      0.5000      0.0100           0
I-Kl-c-5533     C                  1000.0000      0.0000     90.0000    348.3389      1.0000     10.2208      0.9500      0.5000      0.9500      0.5000      0.0100           0
I-Kl-c-5533     C                  1000.0000      0.0000     90.0000    348.3389      1.0000     11.0746      0.9500      0.5000      0.9500      0.5000      0.0100           0
I-Kl-c-5533     C                  1000.0000      0.0000     90.0000    348.3389      1.0000     12.1447      0.9500      0.5000      0.9500      0.5000      0.0100           0
I-Kl-c-5533     C                  1000.0000      0.0000     90.0000    348.3389      1.0000     12.1038      0.9500      0.5000      0.9500      0.5000      0.0100           0
I-Hl-Kl-b-5527  D                  1000.0000      0.0000    120.0000    333.4589      1.0000     11.9452      0.9500      0.5000      0.9500      0.0500      0.0100           0
I-Kl-c-5533     C                  1000.0000      0.0000     90.0000    348.3389      1.0000     14.7904      0.9500      0.5000      0.9500      0.5000      0.0100           0
I-Kl-c-5533     C                  1000.0000      0.0000     90.0000    348.3389      1.0000     17.5495      0.9500      0.5000      0.9500      0.5000      0.0100           0
I-Hl-Kl-b-5527  D                  1000.0000      0.0000    120.0000    333.4589      1.0000     17.1193      0.9500      0.5000      0.9500      0.0500      0.0100           0
I-Kl-c-5533     C                  1000.0000      0.0000     90.0000    348.3389      1.0000     15.9542      0.9500      0.5000      0.9500      0.5000      0.0100           0
I-Kl-c-5533     C                  1000.0000      0.0000     90.0000    348.3389      1.0000     16.5416      0.9500      0.5000      0.9500      0.5000      0.0100           0
I-Hl-Kl-b-5527  D                  1000.0000      0.0000    120.0000    333.4589      1.0000     16.4052      0.9500      0.5000      0.9500      0.0500      0.0100           0
I-Kl-c-5533     C                  1000.0000      0.0000     90.0000    348.3389      1.0000     10.4094      0.9500      0.5000      0.9500      0.5000      0.0100           0
I-Kl-c-5533     C                  1000.0000      0.0000     90.0000    348.3389      1.0000     15.2022      0.9500      0.5000      0.9500      0.5000      0.0100           0
I-Kl-c-5533     C                  1000.0000      0.0000     90.0000    348.3389      1.0000     17.9130      0.9500      0.5000      0.9500      0.5000      0.0100           0
I-Hl-Kl-b-5527  D                  1000.0000      0.0000    120.0000    333.4589      1.0000     17.3089      0.9500      0.5000      0.9500      0.0500      0.0100           0
I-Hl-Kl-b-5527  D                  1000.0000      0.0000    120.0000    333.4589      1.0000      1.2495      0.9500      0.5000      0.9500      0.0500      0.0100           0
I-Hl-Kl-b-5527  D                  1000.0000      0.0000    120.0000    333.4589      1.0000      2.7276      0.9500      0.5000      0.9500      0.0500      0.0100           0
I-Hl-Kl-b-5527  D                  1000.0000      0.0000    120.0000    333.4589      1.0000      6.3516      0.9500      0.5000      0.9500      0.0500      0.0100           0
I-Hl-Kl-b-5527  D                  1000.0000      0.0000    120.0000    333.4589      1.0000      8.4423      0.9500      0.5000      0.9500      0.0500      0.0100           0
I-Hl-Kl-b-5527  D                  1000.0000      0.0000    120.0000    333.4589      1.0000      2.6582      0.9500      0.5000      0.9500      0.0500      0.0100           0
I-Hl-Kl-b-5527  D                  1000.0000      0.0000    120.0000    333.4589      1.0000      7.7865      0.9500      0.5000      0.9500      0.0500      0.0100           0
I-Hl-Kl-b-5527  D                  1000.0000      0.0000    120.0000    333.4589      1.0000      1.2365      0.9500      0.5000      0.9500      0.0500      0.0100           0
I-Hl-Kl-b-5527  D                  1000.0000      0.0000    120.0000    333.4589      1.0000      2.6626      0.9500      0.5000      0.9500      0.0500      0.0100           0
I-Hl-Kl-b-5527  D                  1000.0000      0.0000    120.0000    333.4589      1.0000      9.4558      0.9500      0.5000      0.9500      0.0500      0.0100           0
I-Hl-Kl-b-5527  D                  1000.0000      0.0000    120.0000    333.4589      1.0000      5.9273      0.9500      0.5000      0.9500      0.0500      0.0100           0
I-Hl-Kl-b-5527  D                  1000.0000      0.0000    120.0000    333.4589      1.0000      2.5923      0.9500      0.5000      0.9500      0.0500      0.0100           0
I-Hl-Kl-b-5527  D                  1000.0000      0.0000    120.0000    333.4589      1.0000      1.2259      0.9500      0.5000      0.9500      0.0500      0.0100           0
I-Hl-Kl-b-5527  D                  1000.0000      0.0000    120.0000    333.4589      1.0000      0.9342      0.9500      0.5000      0.9500      0.0500      0.0100           0
I-Hl-Kl-b-5527  D                  1000.0000      0.0000    120.0000    333.4589      1.0000      1.1456      0.9500      0.5000      0.9500      0.0500      0.0100           0
I-Hl-Kl-b-5527  D                  1000.0000      0.0000    120.0000    333.4589      1.0000      2.6483      0.9500      0.5000      0.9500      0.0500      0.0100           0
I-Hl-Kl-b-5527  D                  1000.0000      0.0000    120.0000    333.4589      1.0000      7.5700      0.9500      0.5000      0.9500      0.0500      0.0100           0
I-Hl-Kl-b-5527  D                  1000.0000      0.0000    120.0000    333.4589      1.0000      2.6926      0.9500      0.5000      0.9500      0.0500      0.0100           0
I-Hl-Kl-b-5527  D                  1000.0000      0.0000    120.0000    333.4589      1.0000      6.7301      0.9500      0.5000      0.9500      0.0500      0.0100           0
I-Hl-Kl-b-5527  D                  1000.0000      0.0000    120.0000    333.4589      1.0000      1.2535      0.9500      0.5000      0.9500      0.0500      0.0100           0
I-Kl-c-5533     C                  1000.0000      0.0000     90.0000    348.3389      1.0000      8.1806      0.9500      0.5000      0.9500      0.5000      0.0100           0
I-Kl-c-5533     C                  1000.0000      0.0000     90.0000    348.3389      1.0000      1.1430      0.9500      0.5000      0.9500      0.5000      0.0100           0
I-Kl-c-5533     C                  1000.0000      0.0000     90.0000    348.3389      1.0000      1.1390      0.9500      0.5000      0.9500      0.5000      0.0100           0
I-Hl-Kl-b-5527  D                  1000.0000      0.0000    120.0000    333.4589      1.0000      0.9360      0.9500      0.5000      0.9500      0.0500      0.0100           0
I-Hl-Kl-b-5527  D                  1000.0000      0.0000    120.0000    333.4589      1.0000      1.0948      0.9500      0.5000      0.9500      0.0500      0.0100           0
I-Hl-Kl-b-5527  D                  1000.0000      0.0000    120.0000    333.4589      1.0000      1.1668      0.9500      0.5000      0.9500      0.0500      0.0100           0
I-c-5548        C                  1000.0000      0.0000     20.0000    296.2045      1.0000      5.7602      0.9500      0.5000      0.9500      0.5000      0.0100           0
I-c-5548        C                  1000.0000      0.0000     20.0000    296.2045      1.0000      2.7157      0.9500      0.5000      0.9500      0.5000      0.0100           0
I-c-5548        C                  1000.0000      0.0000     20.0000    296.2045      1.0000      6.6406      0.9500      0.5000      0.9500      0.5000      0.0100           0
I-Hl-Kl-b-5527  D                  1000.0000      0.0000    120.0000    333.4589      1.0000      1.2033      0.9500      0.5000      0.9500      0.0500      0.0100           0
I-Hl-Kl-b-5527  D                  1000.0000      0.0000    120.0000    333.4589      1.0000      2.6624      0.9500      0.5000      0.9500      0.0500      0.0100           0
I-Hl-Kl-b-5527  D                  1000.0000      0.0000    120.0000    333.4589      1.0000      1.2284      0.9500      0.5000      0.9500      0.0500      0.0100           0
I-Hl-Kl-b-5527  D                  1000.0000      0.0000    120.0000    333.4589      1.0000      2.6070      0.9500      0.5000      0.9500      0.0500      0.0100           0
I-Hl-Kl-b-5527  D                  1000.0000      0.0000    120.0000    333.4589      1.0000      6.6213      0.9500      0.5000      0.9500      0.0500      0.0100           0
I-Hl-Kl-b-5527  D                  1000.0000      0.0000    120.0000    333.4589      1.0000      0.9056      0.9500      0.5000      0.9500      0.0500      0.0100           0
I-Hl-Kl-b-5527  D                  1000.0000      0.0000    120.0000    333.4589      1.0000      1.0270      0.9500      0.5000      0.9500      0.0500      0.0100           0
I-c-5548        C                  1000.0000      0.0000     20.0000    296.2045      1.0000      6.8839      0.9500      0.5000      0.9500      0.5000      0.0100           0
I-c-5548        C                  1000.0000      0.0000     20.0000    296.2045      1.0000      2.6777      0.9500      0.5000      0.9500      0.5000      0.0100           0
I-c-5548        C                  1000.0000      0.0000     20.0000    296.2045      1.0000      1.1768      0.9500      0.5000      0.9500      0.5000      0.0100           0
I-Hl-Kl-b-5527  D                  1000.0000      0.0000    120.0000    333.4589      1.0000      1.2382      0.9500      0.5000      0.9500      0.0500      0.0100           0
I-Hl-Kl-b-5527  D                  1000.0000      0.0000    120.0000    333.4589      1.0000      2.6429      0.9500      0.5000      0.9500      0.0500      0.0100           0
I-Hl-Kl-b-5527  D                  1000.0000      0.0000    120.0000    333.4589      1.0000      6.6730      0.9500      0.5000      0.9500      0.0500      0.0100           0
I-Hl-Kl-b-5527  D                  1000.0000      0.0000    120.0000    333.4589      1.0000      1.1740      0.9500      0.5000      0.9500      0.0500      0.0100           0
I-Hl-Kl-b-5527  D                  1000.0000      0.0000    120.0000    333.4589      1.0000      1.1948      0.9500      0.5000      0.9500      0.0500      0.0100           0
I-Hl-Kl-b-5527  D                  1000.0000      0.0000    120.0000    333.4589      1.0000      2.5617      0.9500      0.5000      0.9500      0.0500      0.0100           0
I-Hl-Kl-b-5527  D                  1000.0000      0.0000    120.0000    333.4589      1.0000      9.1486      0.9500      0.5000      0.9500      0.0500      0.0100           0
I-Hl-Kl-b-5527  D                  1000.0000      0.0000    120.0000    333.4589      1.0000      2.7297      0.9500      0.5000      0.9500      0.0500      0.0100           0
I-Hl-Kl-b-5527  D                  1000.0000      0.0000    120.0000    333.4589      1.0000      1.2246      0.9500      0.5000      0.9500      0.0500      0.0100           0
I-Hl-Kl-b-5527  D                  1000.0000      0.0000    120.0000    333.4589      1.0000      5.9850      0.9500      0.5000      0.9500      0.0500      0.0100           0
I-Hl-Kl-b-5527  D                  1000.0000      0.0000    120.0000    333.4589      1.0000     10.5799      0.9500      0.5000      0.9500      0.0500      0.0100           0
I-Hl-Kl-b-5527  D                  1000.0000      0.0000    120.0000    333.4589      1.0000      2.7097      0.9500      0.5000      0.9500      0.0500      0.0100           0
I-Hl-Kl-b-5527  D                  1000.0000      0.0000    120.0000    333.4589      1.0000      7.2497      0.9500      0.5000      0.9500      0.0500      0.0100           0
I-Hl-Kl-b-5527  D                  1000.0000      0.0000    120.0000    333.4589      1.0000      8.6370      0.9500      0.5000      0.9500      0.0500      0.0100           0
I-Hl-Kl-b-5527  D                  1000.0000      0.0000    120.0000    333.4589      1.0000      1.3085      0.9500      0.5000      0.9500      0.0500      0.0100           0
I-Hl-Kl-b-5527  D                  1000.0000      0.0000    120.0000    333.4589      1.0000      6.1625      0.9500      0.5000      0.9500      0.0500      0.0100           0
I-Hl-Kl-b-5527  D                  1000.0000      0.0000    120.0000    333.4589      1.0000      2.6651      0.9500      0.5000      0.9500      0.0500      0.0100           0
I-Hl-Kl-b-5527  D                  1000.0000      0.0000    120.0000    333.4589      1.0000      2.6715      0.9500      0.5000      0.9500      0.0500      0.0100           0
I-Hl-Kl-b-5527  D                  1000.0000      0.0000    120.0000    333.4589      1.0000     10.2704      0.9500      0.5000      0.9500      0.0500      0.0100           0
I-Hl-Kl-b-5527  D                  1000.0000      0.0000    120.0000    333.4589      1.0000      7.5383      0.9500      0.5000      0.9500      0.0500      0.0100           0
I-Hl-Kl-b-5527  D                  1000.0000      0.0000    120.0000    333.4589      1.0000      2.7440      0.9500      0.5000      0.9500      0.0500      0.0100           0
I-Hl-Kl-b-5527  D                  1000.0000      0.0000    120.0000    333.4589      1.0000     12.6909      0.9500      0.5000      0.9500      0.0500      0.0100           0
I-Hl-Kl-b-5527  D                  1000.0000      0.0000    120.0000    333.4589      1.0000      1.1975      0.9500      0.5000      0.9500      0.0500      0.0100           0
I-Hl-Kl-b-5527  D                  1000.0000      0.0000    120.0000    333.4589      1.0000      2.7087      0.9500      0.5000      0.9500      0.0500      0.0100           0
I-Hl-Kl-b-5527  D                  1000.0000      0.0000    120.0000    333.4589      1.0000     10.9625      0.9500      0.5000      0.9500      0.0500      0.0100           0
I-Kl-c-5533     C                  1000.0000      0.0000     90.0000    348.3389      1.0000      9.0447      0.9500      0.5000      0.9500      0.5000      0.0100           0
I-Kl-c-5533     C                  1000.0000      0.0000     90.0000    348.3389      1.0000     12.1148      0.9500      0.5000      0.9500      0.5000      0.0100           0
I-Hl-Kl-b-5527  D                  1000.0000      0.0000    120.0000    333.4589      1.0000     11.6107      0.9500      0.5000      0.9500      0.0500      0.0100           0
I-Kl-c-5533     C                  1000.0000      0.0000     90.0000    348.3389      1.0000     10.8938      0.9500      0.5000      0.9500      0.5000      0.0100           0
I-Hl-Kl-b-5527  D                  1000.0000      0.0000    120.0000    333.4589      1.0000     15.1783      0.9500      0.5000      0.9500      0.0500      0.0100           0
I-Kl-c-5533     C                  1000.0000      0.0000     90.0000    348.3389      1.0000     10.1695      0.9500      0.5000      0.9500      0.5000      0.0100           0
I-Kl-c-5533     C                  1000.0000      0.0000     90.0000    348.3389      1.0000     13.7637      0.9500      0.5000      0.9500      0.5000      0.0100           0
I-Hl-Kl-b-5527  D                  1000.0000      0.0000    120.0000    333.4589      1.0000      1.2899      0.9500      0.5000      0.9500      0.0500      0.0100           0
I-Hl-Kl-b-5527  D                  1000.0000      0.0000    120.0000    333.4589      1.0000      7.4958      0.9500      0.5000      0.9500      0.0500      0.0100           0
I-Hl-Kl-b-5527  D                  1000.0000      0.0000    120.0000    333.4589      1.0000      2.7027      0.9500      0.5000      0.9500      0.0500      0.0100           0
I-Hl-Kl-b-5527  D                  1000.0000      0.0000    120.0000    333.4589      1.0000      6.7923      0.9500      0.5000      0.9500      0.0500      0.0100           0
I-Hl-Kl-b-5527  D                  1000.0000      0.0000    120.0000    333.4589      1.0000      7.3547      0.9500      0.5000      0.9500      0.0500      0.0100           0
I-Hl-Kl-b-5527  D                  1000.0000      0.0000    120.0000    333.4589      1.0000      2.7161      0.9500      0.5000      0.9500      0.0500      0.0100           0
I-Hl-Kl-b-5527  D                  1000.0000      0.0000    120.0000    333.4589      1.0000      2.7196      0.9500      0.5000      0.9500      0.0500      0.0100           0
I-Hl-Kl-b-5527  D                  1000.0000      0.0000    120.0000    333.4589      1.0000      7.2742      0.9500      0.5000      0.9500      0.0500      0.0100           0
I-Hl-Kl-b-5527  D                  1000.0000      0.0000    120.0000    333.4589      1.0000      7.5999      0.9500      0.5000      0.9500      0.0500      0.0100           0
I-Kl-c-5533     C                  1000.0000      0.0000     90.0000    348.3389      1.0000     15.4463      0.9500      0.5000      0.9500      0.5000      0.0100           0
I-c-5548        C                  1000.0000      0.0000     20.0000    296.2045      1.0000     12.4602      0.9500      0.5000      0.9500      0.5000      0.0100           0
I-Kl-c-5533     C                  1000.0000      0.0000     90.0000    348.3389      1.0000      2.7011      0.9500      0.5000      0.9500      0.5000      0.0100           0
I-Kl-c-5533     C                  1000.0000      0.0000     90.0000    348.3389      1.0000     13.3881      0.9500      0.5000      0.9500      0.5000      0.0100           0
I-Kl-c-5533     C                  1000.0000      0.0000     90.0000    348.3389      1.0000     12.0267      0.9500      0.5000      0.9500      0.5000      0.0100           0
I-Kl-c-5533     C                  1000.0000      0.0000     90.0000    348.3389      1.0000     12.0497      0.9500      0.5000      0.9500      0.5000      0.0100           0
I-c-5548        C                  1000.0000      0.0000     20.0000    296.2045      1.0000      9.0484      0.9500      0.5000      0.9500      0.5000      0.0100           0
I-c-5548        C                  1000.0000      0.0000     20.0000    296.2045      1.0000     10.9565      0.9500      0.5000      0.9500      0.5000      0.0100           0
I-c-5548        C                  1000.0000      0.0000     20.0000    296.2045      1.0000     10.5573      0.9500      0.5000      0.9500      0.5000      0.0100           0
I-c-5548        C                  1000.0000      0.0000     20.0000    296.2045      1.0000     12.4672      0.9500      0.5000      0.9500      0.5000      0.0100           0
I-c-5548        C                  1000.0000      0.0000     20.0000    296.2045      1.0000     13.5422      0.9500      0.5000      0.9500      0.5000      0.0100           0
I-Kl-c-5533     C                  1000.0000      0.0000     90.0000    348.3389      1.0000     13.4318      0.9500      0.5000      0.9500      0.5000      0.0100           0
I-c-5548        C                  1000.0000      0.0000     20.0000    296.2045      1.0000     15.1634      0.9500      0.5000      0.9500      0.5000      0.0100           0
I-c-5548        C                  1000.0000      0.0000     20.0000    296.2045      1.0000     15.9235      0.9500      0.5000      0.9500      0.5000      0.0100           0
I-c-5548        C                  1000.0000      0.0000     20.0000    296.2045      1.0000     14.2986      0.9500      0.5000      0.9500      0.5000      0.0100           0
I-Kl-c-5533     C                  1000.0000      0.0000     90.0000    348.3389      1.0000     15.5561      0.9500      0.5000      0.9500      0.5000      0.0100           0
I-Kl-c-5533     C                  1000.0000      0.0000     90.0000    348.3389      1.0000     14.9419      0.9500      0.5000      0.9500      0.5000      0.0100           0
I-Kl-c-5533     C                  1000.0000      0.0000     90.0000    348.3389      1.0000     10.8125      0.9500      0.5000      0.9500      0.5000      0.0100           0
I-Kl-c-5533     C                  1000.0000      0.0000     90.0000    348.3389      1.0000     14.4149      0.9500      0.5000      0.9500      0.5000      0.0100           0
I-Kl-c-5533     C                  1000.0000      0.0000     90.0000    348.3389      1.0000     16.0888      0.9500      0.5000      0.9500      0.5000      0.0100           0
I-Re-c-5540     C                  1000.0000      0.0000     90.0000    438.7305      1.0000      9.5312      0.9500      0.5000      0.9500      0.5000      0.0100           0
I-c-5548        C                  1000.0000      0.0000     20.0000    296.2045      1.0000     12.9601      0.9500      0.5000      0.9500      0.5000      0.0100           0
I-c-5548        C                  1000.0000      0.0000     20.0000    296.2045      1.0000     13.4880      0.9500      0.5000      0.9500      0.5000      0.0100           0
I-c-5548        C                  1000.0000      0.0000     20.0000    296.2045      1.0000     13.2691      0.9500      0.5000      0.9500      0.5000      0.0100           0
I-c-5548        C                  1000.0000      0.0000     20.0000    296.2045      1.0000     11.2036      0.9500      0.5000      0.9500      0.5000      0.0100           0
I-c-5548        C                  1000.0000      0.0000     20.0000    296.2045      1.0000     14.6390      0.9500      0.5000      0.9500      0.5000      0.0100           0
I-c-5548        C                  1000.0000      0.0000     20.0000    296.2045      1.0000     13.2576      0.9500      0.5000      0.9500      0.5000      0.0100           0
I-Re-c-5540     C                  1000.0000      0.0000     90.0000    438.7305      1.0000      1.5521      0.9500      0.5000      0.9500      0.5000      0.0100           0
I-Re-c-5540     C                  1000.0000      0.0000     90.0000    438.7305      1.0000      2.6728      0.9500      0.5000      0.9500      0.5000      0.0100           0
I-Hl-Kl-b-5527  D                  1000.0000      0.0000    120.0000    333.4589      1.0000      2.7508      0.9500      0.5000      0.9500      0.0500      0.0100           0
I-Hl-Kl-b-5527  D                  1000.0000      0.0000    120.0000    333.4589      1.0000      6.6032      0.9500      0.5000      0.9500      0.0500      0.0100           0
I-Hl-Kl-b-5527  D                  1000.0000      0.0000    120.0000    333.4589      1.0000      2.7262      0.9500      0.5000      0.9500      0.0500      0.0100           0
I-Hl-Kl-b-5527  D                  1000.0000      0.0000    120.0000    333.4589      1.0000      6.7939      0.9500      0.5000      0.9500      0.0500      0.0100           0
I-Hl-Kl-b-5527  D                  1000.0000      0.0000    120.0000    333.4589      1.0000     11.1226      0.9500      0.5000      0.9500      0.0500      0.0100           0
I-Hl-Kl-b-5527  D                  1000.0000      0.0000    120.0000    333.4589      1.0000      2.7095      0.9500      0.5000      0.9500      0.0500      0.0100           0
I-Hl-Kl-b-5527  D                  1000.0000      0.0000    120.0000    333.4589      1.0000      8.2079      0.9500      0.5000      0.9500      0.0500      0.0100           0
I-Hl-Kl-b-5527  D                  1000.0000      0.0000    120.0000    333.4589      1.0000      1.2402      0.9500      0.5000      0.9500      0.0500      0.0100           0
I-Hl-Kl-b-5527  D                  1000.0000      0.0000    120.0000    333.4589      1.0000      2.6972      0.9500      0.5000      0.9500      0.0500      0.0100           0
I-Hl-Kl-b-5527  D                  1000.0000      0.0000    120.0000    333.4589      1.0000      5.3249      0.9500      0.5000      0.9500      0.0500      0.0100           0
I-Hl-Kl-b-5527  D                  1000.0000      0.0000    120.0000    333.4589      1.0000      1.2923      0.9500      0.5000      0.9500      0.0500      0.0100           0
I-Hl-Kl-b-5527  D                  1000.0000      0.0000    120.0000    333.4589      1.0000      1.2151      0.9500      0.5000      0.9500      0.0500      0.0100           0
I-Hl-Kl-b-5527  D                  1000.0000      0.0000    120.0000    333.4589      1.0000      7.9337      0.9500      0.5000      0.9500      0.0500      0.0100           0
I-Hl-Kl-b-5527  D                  1000.0000      0.0000    120.0000    333.4589      1.0000      6.4349      0.9500      0.5000      0.9500      0.0500      0.0100           0
I-Hl-Kl-b-5527  D                  1000.0000      0.0000    120.0000    333.4589      1.0000      2.7260      0.9500      0.5000      0.9500      0.0500      0.0100           0
I-Hl-Kl-b-5527  D                  1000.0000      0.0000    120.0000    333.4589      1.0000      9.1938      0.9500      0.5000      0.9500      0.0500      0.0100           0
I-Hl-Kl-b-5527  D                  1000.0000      0.0000    120.0000    333.4589      1.0000     15.9963      0.9500      0.5000      0.9500      0.0500      0.0100           0
I-Hl-Kl-b-5527  D                  1000.0000      0.0000    120.0000    333.4589      1.0000      7.6944      0.9500      0.5000      0.9500      0.0500      0.0100           0
I-Hl-Kl-b-5527  D                  1000.0000      0.0000    120.0000    333.4589      1.0000      2.7379      0.9500      0.5000      0.9500      0.0500      0.0100           0
I-Hl-Kl-b-5527  D                  1000.0000      0.0000    120.0000    333.4589      1.0000      8.2756      0.9500      0.5000      0.9500      0.0500      0.0100           0
I-Hl-Kl-b-5527  D                  1000.0000      0.0000    120.0000    333.4589      1.0000     16.6448      0.9500      0.5000      0.9500      0.0500      0.0100           0
I-Hl-Kl-b-5527  D                  1000.0000      0.0000    120.0000    333.4589      1.0000     14.5958      0.9500      0.5000      0.9500      0.0500      0.0100           0
I-Kl-c-5533     C                  1000.0000      0.0000     90.0000    348.3389      1.0000     14.4390      0.9500      0.5000      0.9500      0.5000      0.0100           0
I-Kl-c-5533     C                  1000.0000      0.0000     90.0000    348.3389      1.0000     10.1087      0.9500      0.5000      0.9500      0.5000      0.0100           0
I-Kl-c-5533     C                  1000.0000      0.0000     90.0000    348.3389      1.0000     11.5241      0.9500      0.5000      0.9500      0.5000      0.0100           0
I-Kl-c-5533     C                  1000.0000      0.0000     90.0000    348.3389      1.0000     12.4692      0.9500      0.5000      0.9500      0.5000      0.0100           0
I-Kl-c-5533     C                  1000.0000      0.0000     90.0000    348.3389      1.0000     10.1458      0.9500      0.5000      0.9500      0.5000      0.0100           0
I-Kl-c-5533     C                  1000.0000      0.0000     90.0000    348.3389      1.0000      1.1160      0.9500      0.5000      0.9500      0.5000      0.0100           0
I-Kl-c-5533     C                  1000.0000      0.0000     90.0000    348.3389      1.0000      0.3944      0.9500      0.5000      0.9500      0.5000      0.0100           0
I-Kl-c-5533     C                  1000.0000      0.0000     90.0000    348.3389      1.0000     13.3011      0.9500      0.5000      0.9500      0.5000      0.0100           0
I-Kl-c-5533     C                  1000.0000      0.0000     90.0000    348.3389      1.0000      1.0504      0.9500      0.5000      0.9500      0.5000      0.0100           0
I-Kl-c-5533     C                  1000.0000      0.0000     90.0000    348.3389      1.0000      1.2250      0.9500      0.5000      0.9500      0.5000      0.0100           0
I-Kl-c-5533     C                  1000.0000      0.0000     90.0000    348.3389      1.0000     11.5247      0.9500      0.5000      0.9500      0.5000      0.0100           0
I-Kl-c-5533     C                  1000.0000      0.0000     90.0000    348.3389      1.0000      2.6961      0.9500      0.5000      0.9500      0.5000      0.0100           0
I-Kl-c-5533     C                  1000.0000      0.0000     90.0000    348.3389      1.0000     13.2440      0.9500      0.5000      0.9500      0.5000      0.0100           0
I-Kl-c-5533     C                  1000.0000      0.0000     90.0000    348.3389      1.0000     14.2282      0.9500      0.5000      0.9500      0.5000      0.0100           0
I-Kl-c-5533     C                  1000.0000      0.0000     90.0000    348.3389      1.0000      2.7256      0.9500      0.5000      0.9500      0.5000      0.0100           0
I-Kl-c-5533     C                  1000.0000      0.0000     90.0000    348.3389      1.0000     11.2056      0.9500      0.5000      0.9500      0.5000      0.0100           0
I-Kl-c-5533     C                  1000.0000      0.0000     90.0000    348.3389      1.0000     10.3322      0.9500      0.5000      0.9500      0.5000      0.0100           0
I-Kl-c-5533     C                  1000.0000      0.0000     90.0000    348.3389      1.0000      2.7471      0.9500      0.5000      0.9500      0.5000      0.0100           0
I-Kl-c-5533     C                  1000.0000      0.0000     90.0000    348.3389      1.0000      1.1960      0.9500      0.5000      0.9500      0.5000      0.0100           0
I-Kl-c-5533     C                  1000.0000      0.0000     90.0000    348.3389      1.0000      2.6470      0.9500      0.5000      0.9500      0.5000      0.0100           0
I-Kl-c-5533     C                  1000.0000      0.0000     90.0000    348.3389      1.0000      7.4849      0.9500      0.5000      0.9500      0.5000      0.0100           0
I-Kl-c-5533     C                  1000.0000      0.0000     90.0000    348.3389      1.0000      9.0099      0.9500      0.5000      0.9500      0.5000      0.0100           0
I-Kl-c-5533     C                  1000.0000      0.0000     90.0000    348.3389      1.0000      1.2085      0.9500      0.5000      0.9500      0.5000      0.0100           0
I-Kl-c-5533     C                  1000.0000      0.0000     90.0000    348.3389      1.0000      2.6707      0.9500      0.5000      0.9500      0.5000      0.0100           0
I-Kl-c-5533     C                  1000.0000      0.0000     90.0000    348.3389      1.0000      2.7342      0.9500      0.5000      0.9500      0.5000      0.0100           0
I-Kl-c-5533     C                  1000.0000      0.0000     90.0000    348.3389      1.0000     11.8082      0.9500      0.5000      0.9500      0.5000      0.0100           0
I-Kl-c-5533     C                  1000.0000      0.0000     90.0000    348.3389      1.0000     12.4498      0.9500      0.5000      0.9500      0.5000      0.0100           0
I-Kl-c-5533     C                  1000.0000      0.0000     90.0000    348.3389      1.0000      1.1486      0.9500      0.5000      0.9500      0.5000      0.0100           0
I-Kl-c-5533     C                  1000.0000      0.0000     90.0000    348.3389      1.0000     12.4995      0.9500      0.5000      0.9500      0.5000      0.0100           0
