                   SWAT+               
             Revision 60.5.4          
      Soil & Water Assessment Tool    
               PC Version             
    Program reading . . . executing


  Date of Sim  11/10/2024 Time  16: 3: 4
 reading from precipitation file         Time  16: 3: 4
 reading from temperature file           Time  16: 3: 4
 reading from solar radiation file       Time  16: 3: 4
 reading from relative humidity file     Time  16: 3: 4
 reading from wind file                  Time  16: 3: 4
 reading from wgn file                   Time  16: 3: 4
 reading from wx station file            Time  16: 3: 4
  Original Simulation        1   1  1985 Yr    1 of   26 Time  16: 3: 4
