                   SWAT+               
            Revision 61.0.1           
      Soil & Water Assessment Tool    
               PC Version             
    Program reading . . . executing


  Date of Sim  10/15/2024 Time   0:19:10
 reading from pet file                   Time   0:19:10
 reading from precipitation file         Time   0:19:10
 reading from temperature file           Time   0:19:10
 reading from solar radiation file       Time   0:19:10
 reading from relative humidity file     Time   0:19:10
 reading from wind file                  Time   0:19:10
 reading from wgn file                   Time   0:19:10
 reading from wx station file            Time   0:19:10
  Original Simulation        1   1  1981 Yr    1 of    2 Time   0:19:11
  Original Simulation        1   2  1981 Yr    1 of    2 Time   0:19:11
  Original Simulation        1   3  1981 Yr    1 of    2 Time   0:19:11
  Original Simulation        1   4  1981 Yr    1 of    2 Time   0:19:11
  Original Simulation        1   5  1981 Yr    1 of    2 Time   0:19:11
  Original Simulation        1   6  1981 Yr    1 of    2 Time   0:19:11
  Original Simulation        1   7  1981 Yr    1 of    2 Time   0:19:11
  Original Simulation        1   8  1981 Yr    1 of    2 Time   0:19:11
  Original Simulation        1   9  1981 Yr    1 of    2 Time   0:19:11
  Original Simulation        1  10  1981 Yr    1 of    2 Time   0:19:11
  Original Simulation        1  11  1981 Yr    1 of    2 Time   0:19:11
  Original Simulation        1  12  1981 Yr    1 of    2 Time   0:19:11
  Original Simulation        1  13  1981 Yr    1 of    2 Time   0:19:11
  Original Simulation        1  14  1981 Yr    1 of    2 Time   0:19:11
  Original Simulation        1  15  1981 Yr    1 of    2 Time   0:19:11
  Original Simulation        1  16  1981 Yr    1 of    2 Time   0:19:11
  Original Simulation        1  17  1981 Yr    1 of    2 Time   0:19:11
  Original Simulation        1  18  1981 Yr    1 of    2 Time   0:19:11
  Original Simulation        1  19  1981 Yr    1 of    2 Time   0:19:11
  Original Simulation        1  20  1981 Yr    1 of    2 Time   0:19:11
  Original Simulation        1  21  1981 Yr    1 of    2 Time   0:19:11
  Original Simulation        1  22  1981 Yr    1 of    2 Time   0:19:11
  Original Simulation        1  23  1981 Yr    1 of    2 Time   0:19:11
  Original Simulation        1  24  1981 Yr    1 of    2 Time   0:19:11
  Original Simulation        1  25  1981 Yr    1 of    2 Time   0:19:11
  Original Simulation        1  26  1981 Yr    1 of    2 Time   0:19:11
  Original Simulation        1  27  1981 Yr    1 of    2 Time   0:19:11
  Original Simulation        1  28  1981 Yr    1 of    2 Time   0:19:11
  Original Simulation        1  29  1981 Yr    1 of    2 Time   0:19:11
  Original Simulation        1  30  1981 Yr    1 of    2 Time   0:19:11
  Original Simulation        1  31  1981 Yr    1 of    2 Time   0:19:11
  Original Simulation        2   1  1981 Yr    1 of    2 Time   0:19:11
  Original Simulation        2   2  1981 Yr    1 of    2 Time   0:19:11
  Original Simulation        2   3  1981 Yr    1 of    2 Time   0:19:11
  Original Simulation        2   4  1981 Yr    1 of    2 Time   0:19:11
  Original Simulation        2   5  1981 Yr    1 of    2 Time   0:19:11
  Original Simulation        2   6  1981 Yr    1 of    2 Time   0:19:11
  Original Simulation        2   7  1981 Yr    1 of    2 Time   0:19:11
  Original Simulation        2   8  1981 Yr    1 of    2 Time   0:19:11
  Original Simulation        2   9  1981 Yr    1 of    2 Time   0:19:11
  Original Simulation        2  10  1981 Yr    1 of    2 Time   0:19:11
  Original Simulation        2  11  1981 Yr    1 of    2 Time   0:19:11
  Original Simulation        2  12  1981 Yr    1 of    2 Time   0:19:11
  Original Simulation        2  13  1981 Yr    1 of    2 Time   0:19:11
  Original Simulation        2  14  1981 Yr    1 of    2 Time   0:19:11
  Original Simulation        2  15  1981 Yr    1 of    2 Time   0:19:11
  Original Simulation        2  16  1981 Yr    1 of    2 Time   0:19:11
  Original Simulation        2  17  1981 Yr    1 of    2 Time   0:19:11
  Original Simulation        2  18  1981 Yr    1 of    2 Time   0:19:11
  Original Simulation        2  19  1981 Yr    1 of    2 Time   0:19:11
  Original Simulation        2  20  1981 Yr    1 of    2 Time   0:19:11
  Original Simulation        2  21  1981 Yr    1 of    2 Time   0:19:11
  Original Simulation        2  22  1981 Yr    1 of    2 Time   0:19:11
  Original Simulation        2  23  1981 Yr    1 of    2 Time   0:19:11
  Original Simulation        2  24  1981 Yr    1 of    2 Time   0:19:11
  Original Simulation        2  25  1981 Yr    1 of    2 Time   0:19:11
  Original Simulation        2  26  1981 Yr    1 of    2 Time   0:19:11
  Original Simulation        2  27  1981 Yr    1 of    2 Time   0:19:11
  Original Simulation        2  28  1981 Yr    1 of    2 Time   0:19:11
  Original Simulation        3   1  1981 Yr    1 of    2 Time   0:19:11
  Original Simulation        3   2  1981 Yr    1 of    2 Time   0:19:11
  Original Simulation        3   3  1981 Yr    1 of    2 Time   0:19:11
  Original Simulation        3   4  1981 Yr    1 of    2 Time   0:19:11
  Original Simulation        3   5  1981 Yr    1 of    2 Time   0:19:11
  Original Simulation        3   6  1981 Yr    1 of    2 Time   0:19:11
  Original Simulation        3   7  1981 Yr    1 of    2 Time   0:19:11
  Original Simulation        3   8  1981 Yr    1 of    2 Time   0:19:11
  Original Simulation        3   9  1981 Yr    1 of    2 Time   0:19:12
  Original Simulation        3  10  1981 Yr    1 of    2 Time   0:19:12
  Original Simulation        3  11  1981 Yr    1 of    2 Time   0:19:12
  Original Simulation        3  12  1981 Yr    1 of    2 Time   0:19:12
  Original Simulation        3  13  1981 Yr    1 of    2 Time   0:19:12
  Original Simulation        3  14  1981 Yr    1 of    2 Time   0:19:12
  Original Simulation        3  15  1981 Yr    1 of    2 Time   0:19:12
  Original Simulation        3  16  1981 Yr    1 of    2 Time   0:19:12
  Original Simulation        3  17  1981 Yr    1 of    2 Time   0:19:12
  Original Simulation        3  18  1981 Yr    1 of    2 Time   0:19:12
  Original Simulation        3  19  1981 Yr    1 of    2 Time   0:19:12
  Original Simulation        3  20  1981 Yr    1 of    2 Time   0:19:12
  Original Simulation        3  21  1981 Yr    1 of    2 Time   0:19:12
  Original Simulation        3  22  1981 Yr    1 of    2 Time   0:19:12
  Original Simulation        3  23  1981 Yr    1 of    2 Time   0:19:12
  Original Simulation        3  24  1981 Yr    1 of    2 Time   0:19:12
  Original Simulation        3  25  1981 Yr    1 of    2 Time   0:19:12
  Original Simulation        3  26  1981 Yr    1 of    2 Time   0:19:12
  Original Simulation        3  27  1981 Yr    1 of    2 Time   0:19:12
  Original Simulation        3  28  1981 Yr    1 of    2 Time   0:19:12
  Original Simulation        3  29  1981 Yr    1 of    2 Time   0:19:12
  Original Simulation        3  30  1981 Yr    1 of    2 Time   0:19:12
  Original Simulation        3  31  1981 Yr    1 of    2 Time   0:19:12
  Original Simulation        4   1  1981 Yr    1 of    2 Time   0:19:12
  Original Simulation        4   2  1981 Yr    1 of    2 Time   0:19:12
  Original Simulation        4   3  1981 Yr    1 of    2 Time   0:19:12
  Original Simulation        4   4  1981 Yr    1 of    2 Time   0:19:12
  Original Simulation        4   5  1981 Yr    1 of    2 Time   0:19:12
  Original Simulation        4   6  1981 Yr    1 of    2 Time   0:19:12
  Original Simulation        4   7  1981 Yr    1 of    2 Time   0:19:12
  Original Simulation        4   8  1981 Yr    1 of    2 Time   0:19:12
  Original Simulation        4   9  1981 Yr    1 of    2 Time   0:19:12
  Original Simulation        4  10  1981 Yr    1 of    2 Time   0:19:12
  Original Simulation        4  11  1981 Yr    1 of    2 Time   0:19:12
  Original Simulation        4  12  1981 Yr    1 of    2 Time   0:19:12
  Original Simulation        4  13  1981 Yr    1 of    2 Time   0:19:12
  Original Simulation        4  14  1981 Yr    1 of    2 Time   0:19:12
  Original Simulation        4  15  1981 Yr    1 of    2 Time   0:19:12
  Original Simulation        4  16  1981 Yr    1 of    2 Time   0:19:12
  Original Simulation        4  17  1981 Yr    1 of    2 Time   0:19:12
  Original Simulation        4  18  1981 Yr    1 of    2 Time   0:19:12
  Original Simulation        4  19  1981 Yr    1 of    2 Time   0:19:12
  Original Simulation        4  20  1981 Yr    1 of    2 Time   0:19:12
  Original Simulation        4  21  1981 Yr    1 of    2 Time   0:19:12
  Original Simulation        4  22  1981 Yr    1 of    2 Time   0:19:12
  Original Simulation        4  23  1981 Yr    1 of    2 Time   0:19:12
  Original Simulation        4  24  1981 Yr    1 of    2 Time   0:19:12
  Original Simulation        4  25  1981 Yr    1 of    2 Time   0:19:12
  Original Simulation        4  26  1981 Yr    1 of    2 Time   0:19:12
  Original Simulation        4  27  1981 Yr    1 of    2 Time   0:19:12
  Original Simulation        4  28  1981 Yr    1 of    2 Time   0:19:12
  Original Simulation        4  29  1981 Yr    1 of    2 Time   0:19:12
  Original Simulation        4  30  1981 Yr    1 of    2 Time   0:19:12
  Original Simulation        5   1  1981 Yr    1 of    2 Time   0:19:12
  Original Simulation        5   2  1981 Yr    1 of    2 Time   0:19:12
  Original Simulation        5   3  1981 Yr    1 of    2 Time   0:19:12
  Original Simulation        5   4  1981 Yr    1 of    2 Time   0:19:12
  Original Simulation        5   5  1981 Yr    1 of    2 Time   0:19:12
  Original Simulation        5   6  1981 Yr    1 of    2 Time   0:19:12
  Original Simulation        5   7  1981 Yr    1 of    2 Time   0:19:12
  Original Simulation        5   8  1981 Yr    1 of    2 Time   0:19:12
  Original Simulation        5   9  1981 Yr    1 of    2 Time   0:19:12
  Original Simulation        5  10  1981 Yr    1 of    2 Time   0:19:12
  Original Simulation        5  11  1981 Yr    1 of    2 Time   0:19:12
  Original Simulation        5  12  1981 Yr    1 of    2 Time   0:19:12
  Original Simulation        5  13  1981 Yr    1 of    2 Time   0:19:12
  Original Simulation        5  14  1981 Yr    1 of    2 Time   0:19:12
  Original Simulation        5  15  1981 Yr    1 of    2 Time   0:19:12
  Original Simulation        5  16  1981 Yr    1 of    2 Time   0:19:12
  Original Simulation        5  17  1981 Yr    1 of    2 Time   0:19:12
  Original Simulation        5  18  1981 Yr    1 of    2 Time   0:19:12
  Original Simulation        5  19  1981 Yr    1 of    2 Time   0:19:12
  Original Simulation        5  20  1981 Yr    1 of    2 Time   0:19:12
  Original Simulation        5  21  1981 Yr    1 of    2 Time   0:19:12
  Original Simulation        5  22  1981 Yr    1 of    2 Time   0:19:12
  Original Simulation        5  23  1981 Yr    1 of    2 Time   0:19:12
  Original Simulation        5  24  1981 Yr    1 of    2 Time   0:19:12
  Original Simulation        5  25  1981 Yr    1 of    2 Time   0:19:12
  Original Simulation        5  26  1981 Yr    1 of    2 Time   0:19:12
  Original Simulation        5  27  1981 Yr    1 of    2 Time   0:19:12
  Original Simulation        5  28  1981 Yr    1 of    2 Time   0:19:12
  Original Simulation        5  29  1981 Yr    1 of    2 Time   0:19:12
  Original Simulation        5  30  1981 Yr    1 of    2 Time   0:19:12
  Original Simulation        5  31  1981 Yr    1 of    2 Time   0:19:12
  Original Simulation        6   1  1981 Yr    1 of    2 Time   0:19:12
  Original Simulation        6   2  1981 Yr    1 of    2 Time   0:19:12
  Original Simulation        6   3  1981 Yr    1 of    2 Time   0:19:12
  Original Simulation        6   4  1981 Yr    1 of    2 Time   0:19:12
  Original Simulation        6   5  1981 Yr    1 of    2 Time   0:19:12
  Original Simulation        6   6  1981 Yr    1 of    2 Time   0:19:12
  Original Simulation        6   7  1981 Yr    1 of    2 Time   0:19:12
  Original Simulation        6   8  1981 Yr    1 of    2 Time   0:19:12
  Original Simulation        6   9  1981 Yr    1 of    2 Time   0:19:12
  Original Simulation        6  10  1981 Yr    1 of    2 Time   0:19:12
  Original Simulation        6  11  1981 Yr    1 of    2 Time   0:19:12
  Original Simulation        6  12  1981 Yr    1 of    2 Time   0:19:12
  Original Simulation        6  13  1981 Yr    1 of    2 Time   0:19:12
  Original Simulation        6  14  1981 Yr    1 of    2 Time   0:19:12
  Original Simulation        6  15  1981 Yr    1 of    2 Time   0:19:12
  Original Simulation        6  16  1981 Yr    1 of    2 Time   0:19:12
  Original Simulation        6  17  1981 Yr    1 of    2 Time   0:19:12
  Original Simulation        6  18  1981 Yr    1 of    2 Time   0:19:12
  Original Simulation        6  19  1981 Yr    1 of    2 Time   0:19:12
  Original Simulation        6  20  1981 Yr    1 of    2 Time   0:19:12
  Original Simulation        6  21  1981 Yr    1 of    2 Time   0:19:12
  Original Simulation        6  22  1981 Yr    1 of    2 Time   0:19:12
  Original Simulation        6  23  1981 Yr    1 of    2 Time   0:19:12
  Original Simulation        6  24  1981 Yr    1 of    2 Time   0:19:12
  Original Simulation        6  25  1981 Yr    1 of    2 Time   0:19:12
  Original Simulation        6  26  1981 Yr    1 of    2 Time   0:19:12
  Original Simulation        6  27  1981 Yr    1 of    2 Time   0:19:12
  Original Simulation        6  28  1981 Yr    1 of    2 Time   0:19:12
  Original Simulation        6  29  1981 Yr    1 of    2 Time   0:19:12
  Original Simulation        6  30  1981 Yr    1 of    2 Time   0:19:12
  Original Simulation        7   1  1981 Yr    1 of    2 Time   0:19:12
  Original Simulation        7   2  1981 Yr    1 of    2 Time   0:19:12
  Original Simulation        7   3  1981 Yr    1 of    2 Time   0:19:12
  Original Simulation        7   4  1981 Yr    1 of    2 Time   0:19:12
  Original Simulation        7   5  1981 Yr    1 of    2 Time   0:19:12
  Original Simulation        7   6  1981 Yr    1 of    2 Time   0:19:12
  Original Simulation        7   7  1981 Yr    1 of    2 Time   0:19:12
  Original Simulation        7   8  1981 Yr    1 of    2 Time   0:19:12
  Original Simulation        7   9  1981 Yr    1 of    2 Time   0:19:12
  Original Simulation        7  10  1981 Yr    1 of    2 Time   0:19:12
  Original Simulation        7  11  1981 Yr    1 of    2 Time   0:19:12
  Original Simulation        7  12  1981 Yr    1 of    2 Time   0:19:12
  Original Simulation        7  13  1981 Yr    1 of    2 Time   0:19:12
  Original Simulation        7  14  1981 Yr    1 of    2 Time   0:19:12
  Original Simulation        7  15  1981 Yr    1 of    2 Time   0:19:12
  Original Simulation        7  16  1981 Yr    1 of    2 Time   0:19:12
  Original Simulation        7  17  1981 Yr    1 of    2 Time   0:19:12
  Original Simulation        7  18  1981 Yr    1 of    2 Time   0:19:12
  Original Simulation        7  19  1981 Yr    1 of    2 Time   0:19:12
  Original Simulation        7  20  1981 Yr    1 of    2 Time   0:19:12
  Original Simulation        7  21  1981 Yr    1 of    2 Time   0:19:12
  Original Simulation        7  22  1981 Yr    1 of    2 Time   0:19:12
  Original Simulation        7  23  1981 Yr    1 of    2 Time   0:19:12
  Original Simulation        7  24  1981 Yr    1 of    2 Time   0:19:12
  Original Simulation        7  25  1981 Yr    1 of    2 Time   0:19:12
  Original Simulation        7  26  1981 Yr    1 of    2 Time   0:19:12
  Original Simulation        7  27  1981 Yr    1 of    2 Time   0:19:12
  Original Simulation        7  28  1981 Yr    1 of    2 Time   0:19:12
  Original Simulation        7  29  1981 Yr    1 of    2 Time   0:19:12
  Original Simulation        7  30  1981 Yr    1 of    2 Time   0:19:12
  Original Simulation        7  31  1981 Yr    1 of    2 Time   0:19:12
  Original Simulation        8   1  1981 Yr    1 of    2 Time   0:19:12
  Original Simulation        8   2  1981 Yr    1 of    2 Time   0:19:12
  Original Simulation        8   3  1981 Yr    1 of    2 Time   0:19:12
  Original Simulation        8   4  1981 Yr    1 of    2 Time   0:19:12
  Original Simulation        8   5  1981 Yr    1 of    2 Time   0:19:12
  Original Simulation        8   6  1981 Yr    1 of    2 Time   0:19:12
  Original Simulation        8   7  1981 Yr    1 of    2 Time   0:19:12
  Original Simulation        8   8  1981 Yr    1 of    2 Time   0:19:12
  Original Simulation        8   9  1981 Yr    1 of    2 Time   0:19:12
  Original Simulation        8  10  1981 Yr    1 of    2 Time   0:19:12
  Original Simulation        8  11  1981 Yr    1 of    2 Time   0:19:12
  Original Simulation        8  12  1981 Yr    1 of    2 Time   0:19:12
  Original Simulation        8  13  1981 Yr    1 of    2 Time   0:19:12
  Original Simulation        8  14  1981 Yr    1 of    2 Time   0:19:12
  Original Simulation        8  15  1981 Yr    1 of    2 Time   0:19:12
  Original Simulation        8  16  1981 Yr    1 of    2 Time   0:19:12
  Original Simulation        8  17  1981 Yr    1 of    2 Time   0:19:12
  Original Simulation        8  18  1981 Yr    1 of    2 Time   0:19:12
  Original Simulation        8  19  1981 Yr    1 of    2 Time   0:19:12
  Original Simulation        8  20  1981 Yr    1 of    2 Time   0:19:12
  Original Simulation        8  21  1981 Yr    1 of    2 Time   0:19:12
  Original Simulation        8  22  1981 Yr    1 of    2 Time   0:19:12
  Original Simulation        8  23  1981 Yr    1 of    2 Time   0:19:12
  Original Simulation        8  24  1981 Yr    1 of    2 Time   0:19:12
  Original Simulation        8  25  1981 Yr    1 of    2 Time   0:19:12
  Original Simulation        8  26  1981 Yr    1 of    2 Time   0:19:12
  Original Simulation        8  27  1981 Yr    1 of    2 Time   0:19:12
  Original Simulation        8  28  1981 Yr    1 of    2 Time   0:19:12
  Original Simulation        8  29  1981 Yr    1 of    2 Time   0:19:12
  Original Simulation        8  30  1981 Yr    1 of    2 Time   0:19:12
  Original Simulation        8  31  1981 Yr    1 of    2 Time   0:19:12
  Original Simulation        9   1  1981 Yr    1 of    2 Time   0:19:12
  Original Simulation        9   2  1981 Yr    1 of    2 Time   0:19:12
  Original Simulation        9   3  1981 Yr    1 of    2 Time   0:19:12
  Original Simulation        9   4  1981 Yr    1 of    2 Time   0:19:12
  Original Simulation        9   5  1981 Yr    1 of    2 Time   0:19:12
  Original Simulation        9   6  1981 Yr    1 of    2 Time   0:19:12
  Original Simulation        9   7  1981 Yr    1 of    2 Time   0:19:12
  Original Simulation        9   8  1981 Yr    1 of    2 Time   0:19:12
  Original Simulation        9   9  1981 Yr    1 of    2 Time   0:19:12
  Original Simulation        9  10  1981 Yr    1 of    2 Time   0:19:12
  Original Simulation        9  11  1981 Yr    1 of    2 Time   0:19:12
  Original Simulation        9  12  1981 Yr    1 of    2 Time   0:19:12
  Original Simulation        9  13  1981 Yr    1 of    2 Time   0:19:12
  Original Simulation        9  14  1981 Yr    1 of    2 Time   0:19:12
  Original Simulation        9  15  1981 Yr    1 of    2 Time   0:19:12
  Original Simulation        9  16  1981 Yr    1 of    2 Time   0:19:12
  Original Simulation        9  17  1981 Yr    1 of    2 Time   0:19:12
  Original Simulation        9  18  1981 Yr    1 of    2 Time   0:19:12
  Original Simulation        9  19  1981 Yr    1 of    2 Time   0:19:12
  Original Simulation        9  20  1981 Yr    1 of    2 Time   0:19:12
  Original Simulation        9  21  1981 Yr    1 of    2 Time   0:19:12
  Original Simulation        9  22  1981 Yr    1 of    2 Time   0:19:12
  Original Simulation        9  23  1981 Yr    1 of    2 Time   0:19:12
  Original Simulation        9  24  1981 Yr    1 of    2 Time   0:19:12
  Original Simulation        9  25  1981 Yr    1 of    2 Time   0:19:12
  Original Simulation        9  26  1981 Yr    1 of    2 Time   0:19:12
  Original Simulation        9  27  1981 Yr    1 of    2 Time   0:19:12
  Original Simulation        9  28  1981 Yr    1 of    2 Time   0:19:12
  Original Simulation        9  29  1981 Yr    1 of    2 Time   0:19:12
  Original Simulation        9  30  1981 Yr    1 of    2 Time   0:19:12
  Original Simulation       10   1  1981 Yr    1 of    2 Time   0:19:12
  Original Simulation       10   2  1981 Yr    1 of    2 Time   0:19:12
  Original Simulation       10   3  1981 Yr    1 of    2 Time   0:19:12
  Original Simulation       10   4  1981 Yr    1 of    2 Time   0:19:12
  Original Simulation       10   5  1981 Yr    1 of    2 Time   0:19:12
  Original Simulation       10   6  1981 Yr    1 of    2 Time   0:19:12
  Original Simulation       10   7  1981 Yr    1 of    2 Time   0:19:12
  Original Simulation       10   8  1981 Yr    1 of    2 Time   0:19:12
  Original Simulation       10   9  1981 Yr    1 of    2 Time   0:19:12
  Original Simulation       10  10  1981 Yr    1 of    2 Time   0:19:12
  Original Simulation       10  11  1981 Yr    1 of    2 Time   0:19:12
  Original Simulation       10  12  1981 Yr    1 of    2 Time   0:19:12
  Original Simulation       10  13  1981 Yr    1 of    2 Time   0:19:12
  Original Simulation       10  14  1981 Yr    1 of    2 Time   0:19:12
  Original Simulation       10  15  1981 Yr    1 of    2 Time   0:19:12
  Original Simulation       10  16  1981 Yr    1 of    2 Time   0:19:12
  Original Simulation       10  17  1981 Yr    1 of    2 Time   0:19:13
  Original Simulation       10  18  1981 Yr    1 of    2 Time   0:19:13
  Original Simulation       10  19  1981 Yr    1 of    2 Time   0:19:13
  Original Simulation       10  20  1981 Yr    1 of    2 Time   0:19:13
  Original Simulation       10  21  1981 Yr    1 of    2 Time   0:19:13
  Original Simulation       10  22  1981 Yr    1 of    2 Time   0:19:13
  Original Simulation       10  23  1981 Yr    1 of    2 Time   0:19:13
  Original Simulation       10  24  1981 Yr    1 of    2 Time   0:19:13
  Original Simulation       10  25  1981 Yr    1 of    2 Time   0:19:13
  Original Simulation       10  26  1981 Yr    1 of    2 Time   0:19:13
  Original Simulation       10  27  1981 Yr    1 of    2 Time   0:19:13
  Original Simulation       10  28  1981 Yr    1 of    2 Time   0:19:13
  Original Simulation       10  29  1981 Yr    1 of    2 Time   0:19:13
  Original Simulation       10  30  1981 Yr    1 of    2 Time   0:19:13
  Original Simulation       10  31  1981 Yr    1 of    2 Time   0:19:13
  Original Simulation       11   1  1981 Yr    1 of    2 Time   0:19:13
  Original Simulation       11   2  1981 Yr    1 of    2 Time   0:19:13
  Original Simulation       11   3  1981 Yr    1 of    2 Time   0:19:13
  Original Simulation       11   4  1981 Yr    1 of    2 Time   0:19:13
  Original Simulation       11   5  1981 Yr    1 of    2 Time   0:19:13
  Original Simulation       11   6  1981 Yr    1 of    2 Time   0:19:13
  Original Simulation       11   7  1981 Yr    1 of    2 Time   0:19:13
  Original Simulation       11   8  1981 Yr    1 of    2 Time   0:19:13
  Original Simulation       11   9  1981 Yr    1 of    2 Time   0:19:13
  Original Simulation       11  10  1981 Yr    1 of    2 Time   0:19:13
  Original Simulation       11  11  1981 Yr    1 of    2 Time   0:19:13
  Original Simulation       11  12  1981 Yr    1 of    2 Time   0:19:13
  Original Simulation       11  13  1981 Yr    1 of    2 Time   0:19:13
  Original Simulation       11  14  1981 Yr    1 of    2 Time   0:19:13
  Original Simulation       11  15  1981 Yr    1 of    2 Time   0:19:13
  Original Simulation       11  16  1981 Yr    1 of    2 Time   0:19:13
  Original Simulation       11  17  1981 Yr    1 of    2 Time   0:19:13
  Original Simulation       11  18  1981 Yr    1 of    2 Time   0:19:13
  Original Simulation       11  19  1981 Yr    1 of    2 Time   0:19:13
  Original Simulation       11  20  1981 Yr    1 of    2 Time   0:19:13
  Original Simulation       11  21  1981 Yr    1 of    2 Time   0:19:13
  Original Simulation       11  22  1981 Yr    1 of    2 Time   0:19:13
  Original Simulation       11  23  1981 Yr    1 of    2 Time   0:19:13
  Original Simulation       11  24  1981 Yr    1 of    2 Time   0:19:13
  Original Simulation       11  25  1981 Yr    1 of    2 Time   0:19:13
  Original Simulation       11  26  1981 Yr    1 of    2 Time   0:19:13
  Original Simulation       11  27  1981 Yr    1 of    2 Time   0:19:13
  Original Simulation       11  28  1981 Yr    1 of    2 Time   0:19:13
  Original Simulation       11  29  1981 Yr    1 of    2 Time   0:19:13
  Original Simulation       11  30  1981 Yr    1 of    2 Time   0:19:13
  Original Simulation       12   1  1981 Yr    1 of    2 Time   0:19:13
  Original Simulation       12   2  1981 Yr    1 of    2 Time   0:19:13
  Original Simulation       12   3  1981 Yr    1 of    2 Time   0:19:13
  Original Simulation       12   4  1981 Yr    1 of    2 Time   0:19:13
  Original Simulation       12   5  1981 Yr    1 of    2 Time   0:19:13
  Original Simulation       12   6  1981 Yr    1 of    2 Time   0:19:13
  Original Simulation       12   7  1981 Yr    1 of    2 Time   0:19:13
  Original Simulation       12   8  1981 Yr    1 of    2 Time   0:19:13
  Original Simulation       12   9  1981 Yr    1 of    2 Time   0:19:13
  Original Simulation       12  10  1981 Yr    1 of    2 Time   0:19:13
  Original Simulation       12  11  1981 Yr    1 of    2 Time   0:19:13
  Original Simulation       12  12  1981 Yr    1 of    2 Time   0:19:13
  Original Simulation       12  13  1981 Yr    1 of    2 Time   0:19:13
  Original Simulation       12  14  1981 Yr    1 of    2 Time   0:19:13
  Original Simulation       12  15  1981 Yr    1 of    2 Time   0:19:13
  Original Simulation       12  16  1981 Yr    1 of    2 Time   0:19:13
  Original Simulation       12  17  1981 Yr    1 of    2 Time   0:19:13
  Original Simulation       12  18  1981 Yr    1 of    2 Time   0:19:13
  Original Simulation       12  19  1981 Yr    1 of    2 Time   0:19:13
  Original Simulation       12  20  1981 Yr    1 of    2 Time   0:19:13
  Original Simulation       12  21  1981 Yr    1 of    2 Time   0:19:13
  Original Simulation       12  22  1981 Yr    1 of    2 Time   0:19:13
  Original Simulation       12  23  1981 Yr    1 of    2 Time   0:19:13
  Original Simulation       12  24  1981 Yr    1 of    2 Time   0:19:13
  Original Simulation       12  25  1981 Yr    1 of    2 Time   0:19:13
  Original Simulation       12  26  1981 Yr    1 of    2 Time   0:19:13
  Original Simulation       12  27  1981 Yr    1 of    2 Time   0:19:13
  Original Simulation       12  28  1981 Yr    1 of    2 Time   0:19:13
  Original Simulation       12  29  1981 Yr    1 of    2 Time   0:19:13
  Original Simulation       12  30  1981 Yr    1 of    2 Time   0:19:13
  Original Simulation       12  31  1981 Yr    1 of    2 Time   0:19:13
  Original Simulation        1   1  1982 Yr    2 of    2 Time   0:19:13
  Original Simulation        1   2  1982 Yr    2 of    2 Time   0:19:13
  Original Simulation        1   3  1982 Yr    2 of    2 Time   0:19:13
  Original Simulation        1   4  1982 Yr    2 of    2 Time   0:19:13
  Original Simulation        1   5  1982 Yr    2 of    2 Time   0:19:13
  Original Simulation        1   6  1982 Yr    2 of    2 Time   0:19:13
  Original Simulation        1   7  1982 Yr    2 of    2 Time   0:19:13
  Original Simulation        1   8  1982 Yr    2 of    2 Time   0:19:13
  Original Simulation        1   9  1982 Yr    2 of    2 Time   0:19:13
  Original Simulation        1  10  1982 Yr    2 of    2 Time   0:19:13
  Original Simulation        1  11  1982 Yr    2 of    2 Time   0:19:13
  Original Simulation        1  12  1982 Yr    2 of    2 Time   0:19:13
  Original Simulation        1  13  1982 Yr    2 of    2 Time   0:19:13
  Original Simulation        1  14  1982 Yr    2 of    2 Time   0:19:13
  Original Simulation        1  15  1982 Yr    2 of    2 Time   0:19:13
  Original Simulation        1  16  1982 Yr    2 of    2 Time   0:19:13
  Original Simulation        1  17  1982 Yr    2 of    2 Time   0:19:13
  Original Simulation        1  18  1982 Yr    2 of    2 Time   0:19:13
  Original Simulation        1  19  1982 Yr    2 of    2 Time   0:19:13
  Original Simulation        1  20  1982 Yr    2 of    2 Time   0:19:13
  Original Simulation        1  21  1982 Yr    2 of    2 Time   0:19:13
  Original Simulation        1  22  1982 Yr    2 of    2 Time   0:19:13
  Original Simulation        1  23  1982 Yr    2 of    2 Time   0:19:13
  Original Simulation        1  24  1982 Yr    2 of    2 Time   0:19:13
  Original Simulation        1  25  1982 Yr    2 of    2 Time   0:19:13
  Original Simulation        1  26  1982 Yr    2 of    2 Time   0:19:13
  Original Simulation        1  27  1982 Yr    2 of    2 Time   0:19:13
  Original Simulation        1  28  1982 Yr    2 of    2 Time   0:19:13
  Original Simulation        1  29  1982 Yr    2 of    2 Time   0:19:13
  Original Simulation        1  30  1982 Yr    2 of    2 Time   0:19:13
  Original Simulation        1  31  1982 Yr    2 of    2 Time   0:19:13
  Original Simulation        2   1  1982 Yr    2 of    2 Time   0:19:13
  Original Simulation        2   2  1982 Yr    2 of    2 Time   0:19:13
  Original Simulation        2   3  1982 Yr    2 of    2 Time   0:19:13
  Original Simulation        2   4  1982 Yr    2 of    2 Time   0:19:13
  Original Simulation        2   5  1982 Yr    2 of    2 Time   0:19:13
  Original Simulation        2   6  1982 Yr    2 of    2 Time   0:19:13
  Original Simulation        2   7  1982 Yr    2 of    2 Time   0:19:13
  Original Simulation        2   8  1982 Yr    2 of    2 Time   0:19:13
  Original Simulation        2   9  1982 Yr    2 of    2 Time   0:19:13
  Original Simulation        2  10  1982 Yr    2 of    2 Time   0:19:13
  Original Simulation        2  11  1982 Yr    2 of    2 Time   0:19:13
  Original Simulation        2  12  1982 Yr    2 of    2 Time   0:19:13
  Original Simulation        2  13  1982 Yr    2 of    2 Time   0:19:13
  Original Simulation        2  14  1982 Yr    2 of    2 Time   0:19:13
  Original Simulation        2  15  1982 Yr    2 of    2 Time   0:19:13
  Original Simulation        2  16  1982 Yr    2 of    2 Time   0:19:13
  Original Simulation        2  17  1982 Yr    2 of    2 Time   0:19:13
  Original Simulation        2  18  1982 Yr    2 of    2 Time   0:19:13
  Original Simulation        2  19  1982 Yr    2 of    2 Time   0:19:13
  Original Simulation        2  20  1982 Yr    2 of    2 Time   0:19:13
  Original Simulation        2  21  1982 Yr    2 of    2 Time   0:19:13
  Original Simulation        2  22  1982 Yr    2 of    2 Time   0:19:13
  Original Simulation        2  23  1982 Yr    2 of    2 Time   0:19:13
  Original Simulation        2  24  1982 Yr    2 of    2 Time   0:19:13
  Original Simulation        2  25  1982 Yr    2 of    2 Time   0:19:13
  Original Simulation        2  26  1982 Yr    2 of    2 Time   0:19:13
  Original Simulation        2  27  1982 Yr    2 of    2 Time   0:19:13
  Original Simulation        2  28  1982 Yr    2 of    2 Time   0:19:13
  Original Simulation        3   1  1982 Yr    2 of    2 Time   0:19:13
  Original Simulation        3   2  1982 Yr    2 of    2 Time   0:19:13
  Original Simulation        3   3  1982 Yr    2 of    2 Time   0:19:13
  Original Simulation        3   4  1982 Yr    2 of    2 Time   0:19:13
  Original Simulation        3   5  1982 Yr    2 of    2 Time   0:19:13
  Original Simulation        3   6  1982 Yr    2 of    2 Time   0:19:13
  Original Simulation        3   7  1982 Yr    2 of    2 Time   0:19:13
  Original Simulation        3   8  1982 Yr    2 of    2 Time   0:19:13

 Execution successfully completed 

  Date of Sim  10/15/2024 Time   0:19:13
